* NGSPICE file created from open_ldo_pex.ext - technology: gf180mcuD

.subckt open_ldo_pex out iref vin_p feedback ref vss vdd
X0 out ota_0.vout vdd vdd pfet_03v3 ad=3.8988p pd=13.77u as=4.814p ps=13.61u w=4.38u l=0.5u
X1 out ota_0.vout vdd vdd pfet_03v3 ad=3.8988p pd=13.77u as=6.322p ps=16.92u w=4.38u l=0.5u
X2 out ota_0.vout vdd vdd pfet_03v3 ad=5.163599p pd=17.56u as=6.322p ps=16.92u w=4.38u l=0.5u
X3 out ota_0.vout vdd vdd pfet_03v3 ad=3.8988p pd=13.77u as=4.814p ps=13.61u w=4.38u l=0.5u
X4 out ota_0.vout vdd vdd pfet_03v3 ad=3.8988p pd=13.77u as=6.322p ps=16.92u w=4.38u l=0.5u
X5 a_29974_15620# out vss ppolyf_u_1k r_width=1u r_length=20u
X6 vdd ota_0.vout out vdd pfet_03v3 ad=6.322p pd=16.92u as=5.163599p ps=17.56u w=4.38u l=0.5u
X7 out ota_0.vout vdd vdd pfet_03v3 ad=3.8988p pd=13.77u as=6.322p ps=16.92u w=4.38u l=0.5u
X8 out ota_0.vout vdd vdd pfet_03v3 ad=5.163599p pd=17.56u as=6.322p ps=16.92u w=4.38u l=0.5u
X9 out ota_0.vout vdd vdd pfet_03v3 ad=5.163599p pd=17.56u as=6.322p ps=16.92u w=4.38u l=0.5u
X10 out ota_0.vout vdd vdd pfet_03v3 ad=5.163599p pd=17.56u as=6.322p ps=16.92u w=4.38u l=0.5u
X11 vdd ota_0.vout out vdd pfet_03v3 ad=6.322p pd=16.92u as=5.163599p ps=17.56u w=4.38u l=0.5u
X12 vdd ota_0.vout out vdd pfet_03v3 ad=6.322p pd=16.92u as=5.163599p ps=17.56u w=4.38u l=0.5u
X13 vdd ota_0.vout out vdd pfet_03v3 ad=6.322p pd=16.92u as=5.163599p ps=17.56u w=4.38u l=0.5u
X14 out ota_0.vout vdd vdd pfet_03v3 ad=5.163599p pd=17.56u as=6.322p ps=16.92u w=4.38u l=0.5u
X15 vdd ota_0.vout out vdd pfet_03v3 ad=6.322p pd=16.92u as=5.163599p ps=17.56u w=4.38u l=0.5u
X16 vdd ota_0.vout out vdd pfet_03v3 ad=6.322p pd=16.92u as=5.163599p ps=17.56u w=4.38u l=0.5u
X17 vdd ota_0.vout out vdd pfet_03v3 ad=6.322p pd=16.92u as=5.163599p ps=17.56u w=4.38u l=0.5u
X18 vdd ota_0.vout out vdd pfet_03v3 ad=4.814p pd=13.61u as=3.8988p ps=13.77u w=4.38u l=0.5u
X19 out ota_0.vout vdd vdd pfet_03v3 ad=5.163599p pd=17.56u as=6.322p ps=16.92u w=4.38u l=0.5u
X20 vdd ota_0.vout out vdd pfet_03v3 ad=6.322p pd=16.92u as=5.163599p ps=17.56u w=4.38u l=0.5u
X21 out ota_0.vout vdd vdd pfet_03v3 ad=5.163599p pd=17.56u as=6.322p ps=16.92u w=4.38u l=0.5u
X22 out ota_0.vout vdd vdd pfet_03v3 ad=5.163599p pd=17.56u as=6.322p ps=16.92u w=4.38u l=0.5u
X23 out ota_0.vout vdd vdd pfet_03v3 ad=5.163599p pd=17.56u as=6.322p ps=16.92u w=4.38u l=0.5u
X24 vdd ota_0.vout out vdd pfet_03v3 ad=6.322p pd=16.92u as=5.163599p ps=17.56u w=4.38u l=0.5u
X25 out ota_0.vout vdd vdd pfet_03v3 ad=5.163599p pd=17.56u as=6.322p ps=16.92u w=4.38u l=0.5u
X26 out ota_0.vout vdd vdd pfet_03v3 ad=5.163599p pd=17.56u as=6.322p ps=16.92u w=4.38u l=0.5u
X27 vdd ota_0.vout out vdd pfet_03v3 ad=6.322p pd=16.92u as=5.163599p ps=17.56u w=4.38u l=0.5u
X28 out ota_0.vout vdd vdd pfet_03v3 ad=5.163599p pd=17.56u as=6.322p ps=16.92u w=4.38u l=0.5u
X29 vdd ota_0.vout out vdd pfet_03v3 ad=4.814p pd=13.61u as=3.8988p ps=13.77u w=4.38u l=0.5u
X30 vdd ota_0.vout out vdd pfet_03v3 ad=6.322p pd=16.92u as=5.163599p ps=17.56u w=4.38u l=0.5u
X31 vdd ota_0.vout out vdd pfet_03v3 ad=6.322p pd=16.92u as=5.163599p ps=17.56u w=4.38u l=0.5u
X32 out ota_0.vout vdd vdd pfet_03v3 ad=5.163599p pd=17.56u as=6.322p ps=16.92u w=4.38u l=0.5u
X33 vdd ota_0.vout out vdd pfet_03v3 ad=6.322p pd=16.92u as=5.163599p ps=17.56u w=4.38u l=0.5u
X34 out ota_0.vout vdd vdd pfet_03v3 ad=5.163599p pd=17.56u as=6.322p ps=16.92u w=4.38u l=0.5u
X35 out ota_0.vout vdd vdd pfet_03v3 ad=5.163599p pd=17.56u as=6.322p ps=16.92u w=4.38u l=0.5u
X36 out ota_0.vout vdd vdd pfet_03v3 ad=5.163599p pd=17.56u as=6.322p ps=16.92u w=4.38u l=0.5u
X37 out ota_0.vout vdd vdd pfet_03v3 ad=5.163599p pd=17.56u as=6.322p ps=16.92u w=4.38u l=0.5u
X38 vdd ota_0.vout out vdd pfet_03v3 ad=6.322p pd=16.92u as=5.163599p ps=17.56u w=4.38u l=0.5u
X39 out ota_0.vout vdd vdd pfet_03v3 ad=5.163599p pd=17.56u as=4.814p ps=13.61u w=4.38u l=0.5u
X40 out ota_0.vout vdd vdd pfet_03v3 ad=5.163599p pd=17.56u as=6.322p ps=16.92u w=4.38u l=0.5u
X41 vdd ota_0.vout out vdd pfet_03v3 ad=6.322p pd=16.92u as=5.163599p ps=17.56u w=4.38u l=0.5u
X42 out ota_0.vout vdd vdd pfet_03v3 ad=5.163599p pd=17.56u as=6.322p ps=16.92u w=4.38u l=0.5u
X43 out ota_0.vout vdd vdd pfet_03v3 ad=5.163599p pd=17.56u as=6.322p ps=16.92u w=4.38u l=0.5u
X44 out ota_0.vout vdd vdd pfet_03v3 ad=5.163599p pd=17.56u as=6.322p ps=16.92u w=4.38u l=0.5u
X45 vdd ota_0.vout out vdd pfet_03v3 ad=6.322p pd=16.92u as=5.163599p ps=17.56u w=4.38u l=0.5u
X46 out ota_0.vout vdd vdd pfet_03v3 ad=5.163599p pd=17.56u as=6.322p ps=16.92u w=4.38u l=0.5u
X47 out ota_0.vout vdd vdd pfet_03v3 ad=5.163599p pd=17.56u as=6.322p ps=16.92u w=4.38u l=0.5u
X48 out ota_0.vout vdd vdd pfet_03v3 ad=5.163599p pd=17.56u as=6.322p ps=16.92u w=4.38u l=0.5u
X49 vdd ota_0.vout out vdd pfet_03v3 ad=6.322p pd=16.92u as=5.163599p ps=17.56u w=4.38u l=0.5u
X50 out ota_0.vout vdd vdd pfet_03v3 ad=5.163599p pd=17.56u as=6.322p ps=16.92u w=4.38u l=0.5u
X51 out ota_0.vout vdd vdd pfet_03v3 ad=5.163599p pd=17.56u as=6.322p ps=16.92u w=4.38u l=0.5u
X52 out ota_0.vout vdd vdd pfet_03v3 ad=5.163599p pd=17.56u as=6.322p ps=16.92u w=4.38u l=0.5u
X53 vdd ota_0.vout out vdd pfet_03v3 ad=6.322p pd=16.92u as=5.163599p ps=17.56u w=4.38u l=0.5u
X54 vdd ota_0.vout out vdd pfet_03v3 ad=3.2335p pd=9.38u as=3.8988p ps=13.77u w=4.38u l=0.5u
X55 vdd ota_0.vout out vdd pfet_03v3 ad=6.322p pd=16.92u as=5.163599p ps=17.56u w=4.38u l=0.5u
X56 out ota_0.vout vdd vdd pfet_03v3 ad=5.163599p pd=17.56u as=6.322p ps=16.92u w=4.38u l=0.5u
X57 vdd ota_0.vout out vdd pfet_03v3 ad=4.814p pd=13.61u as=3.8988p ps=13.77u w=4.38u l=0.5u
X58 out ota_0.vout vdd vdd pfet_03v3 ad=5.163599p pd=17.56u as=6.322p ps=16.92u w=4.38u l=0.5u
X59 vdd ota_0.vout out vdd pfet_03v3 ad=6.322p pd=16.92u as=5.163599p ps=17.56u w=4.38u l=0.5u
X60 out ota_0.vout vdd vdd pfet_03v3 ad=5.163599p pd=17.56u as=6.322p ps=16.92u w=4.38u l=0.5u
X61 out ota_0.vout vdd vdd pfet_03v3 ad=3.8988p pd=13.77u as=4.814p ps=13.61u w=4.38u l=0.5u
X62 vdd ota_0.vout out vdd pfet_03v3 ad=6.322p pd=16.92u as=5.163599p ps=17.56u w=4.38u l=0.5u
X63 vdd ota_0.vout out vdd pfet_03v3 ad=6.322p pd=16.92u as=5.163599p ps=17.56u w=4.38u l=0.5u
X64 vdd ota_0.vout out vdd pfet_03v3 ad=6.322p pd=16.92u as=5.163599p ps=17.56u w=4.38u l=0.5u
X65 out ota_0.vout vdd vdd pfet_03v3 ad=5.163599p pd=17.56u as=6.322p ps=16.92u w=4.38u l=0.5u
X66 out ota_0.vout vdd vdd pfet_03v3 ad=5.163599p pd=17.56u as=6.322p ps=16.92u w=4.38u l=0.5u
X67 vdd ota_0.vout out vdd pfet_03v3 ad=6.322p pd=16.92u as=3.8988p ps=13.77u w=4.38u l=0.5u
X68 vdd ota_0.vout out vdd pfet_03v3 ad=6.322p pd=16.92u as=5.163599p ps=17.56u w=4.38u l=0.5u
X69 vdd ota_0.vout out vdd pfet_03v3 ad=6.322p pd=16.92u as=5.163599p ps=17.56u w=4.38u l=0.5u
X70 vdd ota_0.vout out vdd pfet_03v3 ad=6.322p pd=16.92u as=3.8988p ps=13.77u w=4.38u l=0.5u
X71 out ota_0.vout vdd vdd pfet_03v3 ad=5.163599p pd=17.56u as=6.322p ps=16.92u w=4.38u l=0.5u
X72 vdd ota_0.vout out vdd pfet_03v3 ad=4.814p pd=13.61u as=3.8988p ps=13.77u w=4.38u l=0.5u
X73 out ota_0.vout vdd vdd pfet_03v3 ad=5.163599p pd=17.56u as=6.322p ps=16.92u w=4.38u l=0.5u
X74 out ota_0.vout vdd vdd pfet_03v3 ad=5.163599p pd=17.56u as=4.814p ps=13.61u w=4.38u l=0.5u
X75 vdd ota_0.vout out vdd pfet_03v3 ad=6.322p pd=16.92u as=5.163599p ps=17.56u w=4.38u l=0.5u
X76 out ota_0.vout vdd vdd pfet_03v3 ad=5.163599p pd=17.56u as=6.322p ps=16.92u w=4.38u l=0.5u
X77 out ota_0.vout vdd vdd pfet_03v3 ad=5.163599p pd=17.56u as=6.322p ps=16.92u w=4.38u l=0.5u
X78 out ota_0.vout vdd vdd pfet_03v3 ad=5.163599p pd=17.56u as=6.322p ps=16.92u w=4.38u l=0.5u
X79 vdd ota_0.vout out vdd pfet_03v3 ad=6.322p pd=16.92u as=5.163599p ps=17.56u w=4.38u l=0.5u
X80 vdd ota_0.vout out vdd pfet_03v3 ad=6.322p pd=16.92u as=5.163599p ps=17.56u w=4.38u l=0.5u
X81 vdd ota_0.vout out vdd pfet_03v3 ad=4.814p pd=13.61u as=5.163599p ps=17.56u w=4.38u l=0.5u
X82 vdd ota_0.vout out vdd pfet_03v3 ad=6.322p pd=16.92u as=5.163599p ps=17.56u w=4.38u l=0.5u
X83 vdd ota_0.vout out vdd pfet_03v3 ad=6.322p pd=16.92u as=5.163599p ps=17.56u w=4.38u l=0.5u
X84 out ota_0.vout vdd vdd pfet_03v3 ad=5.163599p pd=17.56u as=6.322p ps=16.92u w=4.38u l=0.5u
X85 vdd ota_0.vout out vdd pfet_03v3 ad=4.814p pd=13.61u as=5.163599p ps=17.56u w=4.38u l=0.5u
X86 vdd ota_0.vout out vdd pfet_03v3 ad=6.322p pd=16.92u as=5.163599p ps=17.56u w=4.38u l=0.5u
X87 vdd ota_0.vout out vdd pfet_03v3 ad=6.322p pd=16.92u as=5.163599p ps=17.56u w=4.38u l=0.5u
X88 out ota_0.vout vdd vdd pfet_03v3 ad=5.163599p pd=17.56u as=6.322p ps=16.92u w=4.38u l=0.5u
X89 vdd ota_0.vout out vdd pfet_03v3 ad=6.322p pd=16.92u as=3.8988p ps=13.77u w=4.38u l=0.5u
X90 out ota_0.vout vdd vdd pfet_03v3 ad=5.163599p pd=17.56u as=6.322p ps=16.92u w=4.38u l=0.5u
X91 vdd ota_0.vout out vdd pfet_03v3 ad=6.322p pd=16.92u as=5.163599p ps=17.56u w=4.38u l=0.5u
X92 out ota_0.vout vdd vdd pfet_03v3 ad=5.163599p pd=17.56u as=6.322p ps=16.92u w=4.38u l=0.5u
X93 vdd ota_0.vout out vdd pfet_03v3 ad=6.322p pd=16.92u as=5.163599p ps=17.56u w=4.38u l=0.5u
X94 out ota_0.vout vdd vdd pfet_03v3 ad=5.163599p pd=17.56u as=6.322p ps=16.92u w=4.38u l=0.5u
X95 vdd ota_0.vout out vdd pfet_03v3 ad=6.322p pd=16.92u as=5.163599p ps=17.56u w=4.38u l=0.5u
X96 vdd ota_0.vout out vdd pfet_03v3 ad=6.322p pd=16.92u as=5.163599p ps=17.56u w=4.38u l=0.5u
X97 out ota_0.vout vdd vdd pfet_03v3 ad=5.163599p pd=17.56u as=6.322p ps=16.92u w=4.38u l=0.5u
X98 vdd ota_0.vout out vdd pfet_03v3 ad=6.322p pd=16.92u as=5.163599p ps=17.56u w=4.38u l=0.5u
X99 out ota_0.vout vdd vdd pfet_03v3 ad=5.163599p pd=17.56u as=6.322p ps=16.92u w=4.38u l=0.5u
X100 out ota_0.vout vdd vdd pfet_03v3 ad=5.163599p pd=17.56u as=6.322p ps=16.92u w=4.38u l=0.5u
X101 vdd ota_0.vout out vdd pfet_03v3 ad=6.322p pd=16.92u as=5.163599p ps=17.56u w=4.38u l=0.5u
X102 out ota_0.vout vdd vdd pfet_03v3 ad=5.163599p pd=17.56u as=6.322p ps=16.92u w=4.38u l=0.5u
X103 out ota_0.vout vdd vdd pfet_03v3 ad=5.163599p pd=17.56u as=6.322p ps=16.92u w=4.38u l=0.5u
X104 out ota_0.vout vdd vdd pfet_03v3 ad=5.163599p pd=17.56u as=6.322p ps=16.92u w=4.38u l=0.5u
X105 out ota_0.vout vdd vdd pfet_03v3 ad=5.163599p pd=17.56u as=6.322p ps=16.92u w=4.38u l=0.5u
X106 out ota_0.vout vdd vdd pfet_03v3 ad=5.163599p pd=17.56u as=6.322p ps=16.92u w=4.38u l=0.5u
X107 out ota_0.vout vdd vdd pfet_03v3 ad=5.163599p pd=17.56u as=6.322p ps=16.92u w=4.38u l=0.5u
X108 vdd ota_0.vout out vdd pfet_03v3 ad=6.322p pd=16.92u as=5.163599p ps=17.56u w=4.38u l=0.5u
X109 vdd ota_0.vout out vdd pfet_03v3 ad=6.322p pd=16.92u as=5.163599p ps=17.56u w=4.38u l=0.5u
X110 ota_0.vout iref vss vss nfet_03v3 ad=0.65p pd=3.02u as=0.65p ps=3.02u w=2.5u l=1u
X111 out ota_0.vout vdd vdd pfet_03v3 ad=5.163599p pd=17.56u as=4.814p ps=13.61u w=4.38u l=0.5u
X112 out ota_0.vout vdd vdd pfet_03v3 ad=5.163599p pd=17.56u as=6.322p ps=16.92u w=4.38u l=0.5u
X113 out ota_0.vout vdd vdd pfet_03v3 ad=5.163599p pd=17.56u as=6.322p ps=16.92u w=4.38u l=0.5u
X114 out ota_0.vout vdd vdd pfet_03v3 ad=5.163599p pd=17.56u as=6.322p ps=16.92u w=4.38u l=0.5u
X115 vdd ota_0.vout out vdd pfet_03v3 ad=6.322p pd=16.92u as=5.163599p ps=17.56u w=4.38u l=0.5u
X116 out ota_0.vout vdd vdd pfet_03v3 ad=5.163599p pd=17.56u as=6.322p ps=16.92u w=4.38u l=0.5u
X117 out ota_0.vout vdd vdd pfet_03v3 ad=5.163599p pd=17.56u as=6.322p ps=16.92u w=4.38u l=0.5u
X118 out ota_0.vout vdd vdd pfet_03v3 ad=5.163599p pd=17.56u as=6.322p ps=16.92u w=4.38u l=0.5u
X119 vdd ota_0.vout out vdd pfet_03v3 ad=6.322p pd=16.92u as=5.163599p ps=17.56u w=4.38u l=0.5u
X120 out ota_0.vout vdd vdd pfet_03v3 ad=5.163599p pd=17.56u as=6.322p ps=16.92u w=4.38u l=0.5u
X121 vdd ota_0.vout out vdd pfet_03v3 ad=6.322p pd=16.92u as=5.163599p ps=17.56u w=4.38u l=0.5u
X122 vdd ota_0.vout out vdd pfet_03v3 ad=6.322p pd=16.92u as=5.163599p ps=17.56u w=4.38u l=0.5u
X123 vdd ota_0.vout out vdd pfet_03v3 ad=4.814p pd=13.61u as=3.8988p ps=13.77u w=4.38u l=0.5u
X124 vdd ota_0.vout out vdd pfet_03v3 ad=6.322p pd=16.92u as=3.8988p ps=13.77u w=4.38u l=0.5u
X125 out ota_0.vout vdd vdd pfet_03v3 ad=5.163599p pd=17.56u as=6.322p ps=16.92u w=4.38u l=0.5u
X126 out ota_0.vout vdd vdd pfet_03v3 ad=5.163599p pd=17.56u as=6.322p ps=16.92u w=4.38u l=0.5u
X127 vdd ota_0.vout out vdd pfet_03v3 ad=6.322p pd=16.92u as=5.163599p ps=17.56u w=4.38u l=0.5u
X128 vdd ota_0.vout out vdd pfet_03v3 ad=6.322p pd=16.92u as=5.163599p ps=17.56u w=4.38u l=0.5u
X129 out ota_0.vout vdd vdd pfet_03v3 ad=5.163599p pd=17.56u as=6.322p ps=16.92u w=4.38u l=0.5u
X130 vdd ota_0.vout out vdd pfet_03v3 ad=6.322p pd=16.92u as=5.163599p ps=17.56u w=4.38u l=0.5u
X131 vdd ota_0.vout out vdd pfet_03v3 ad=6.322p pd=16.92u as=5.163599p ps=17.56u w=4.38u l=0.5u
X132 out ota_0.vout vdd vdd pfet_03v3 ad=5.163599p pd=17.56u as=6.322p ps=16.92u w=4.38u l=0.5u
X133 vdd ota_0.vout out vdd pfet_03v3 ad=6.322p pd=16.92u as=3.8988p ps=13.77u w=4.38u l=0.5u
X134 out ota_0.vout vdd vdd pfet_03v3 ad=5.163599p pd=17.56u as=6.322p ps=16.92u w=4.38u l=0.5u
X135 vdd ota_0.vout out vdd pfet_03v3 ad=6.322p pd=16.92u as=5.163599p ps=17.56u w=4.38u l=0.5u
X136 vdd ota_0.vout out vdd pfet_03v3 ad=6.322p pd=16.92u as=5.163599p ps=17.56u w=4.38u l=0.5u
X137 vdd ota_0.vout out vdd pfet_03v3 ad=6.322p pd=16.92u as=5.163599p ps=17.56u w=4.38u l=0.5u
X138 out ota_0.vout vdd vdd pfet_03v3 ad=5.163599p pd=17.56u as=6.322p ps=16.92u w=4.38u l=0.5u
X139 out ota_0.vout vdd vdd pfet_03v3 ad=5.163599p pd=17.56u as=6.322p ps=16.92u w=4.38u l=0.5u
X140 out ota_0.vout vdd vdd pfet_03v3 ad=3.8988p pd=13.77u as=4.814p ps=13.61u w=4.38u l=0.5u
X141 out ota_0.vout vdd vdd pfet_03v3 ad=5.163599p pd=17.56u as=6.322p ps=16.92u w=4.38u l=0.5u
X142 vdd ota_0.vout out vdd pfet_03v3 ad=6.322p pd=16.92u as=5.163599p ps=17.56u w=4.38u l=0.5u
X143 out ota_0.vout vdd vdd pfet_03v3 ad=5.163599p pd=17.56u as=6.322p ps=16.92u w=4.38u l=0.5u
X144 vdd ota_0.vout out vdd pfet_03v3 ad=6.322p pd=16.92u as=5.163599p ps=17.56u w=4.38u l=0.5u
X145 vdd ota_0.vout out vdd pfet_03v3 ad=6.322p pd=16.92u as=5.163599p ps=17.56u w=4.38u l=0.5u
X146 vdd ota_0.vout out vdd pfet_03v3 ad=6.322p pd=16.92u as=5.163599p ps=17.56u w=4.38u l=0.5u
X147 out ota_0.vout vdd vdd pfet_03v3 ad=5.163599p pd=17.56u as=6.322p ps=16.92u w=4.38u l=0.5u
X148 vdd ota_0.vout out vdd pfet_03v3 ad=6.322p pd=16.92u as=5.163599p ps=17.56u w=4.38u l=0.5u
X149 out ota_0.vout vdd vdd pfet_03v3 ad=5.163599p pd=17.56u as=6.322p ps=16.92u w=4.38u l=0.5u
X150 vdd ota_0.vout out vdd pfet_03v3 ad=6.322p pd=16.92u as=5.163599p ps=17.56u w=4.38u l=0.5u
X151 out ota_0.vout vdd vdd pfet_03v3 ad=5.163599p pd=17.56u as=6.322p ps=16.92u w=4.38u l=0.5u
X152 vdd ota_0.vout out vdd pfet_03v3 ad=6.322p pd=16.92u as=5.163599p ps=17.56u w=4.38u l=0.5u
X153 vdd ota_0.vout out vdd pfet_03v3 ad=6.322p pd=16.92u as=5.163599p ps=17.56u w=4.38u l=0.5u
X154 vdd ota_0.vout out vdd pfet_03v3 ad=6.322p pd=16.92u as=5.163599p ps=17.56u w=4.38u l=0.5u
X155 vdd ota_0.vout out vdd pfet_03v3 ad=6.322p pd=16.92u as=5.163599p ps=17.56u w=4.38u l=0.5u
X156 vdd ota_0.vout out vdd pfet_03v3 ad=6.322p pd=16.92u as=5.163599p ps=17.56u w=4.38u l=0.5u
X157 out ota_0.vout vdd vdd pfet_03v3 ad=5.163599p pd=17.56u as=6.322p ps=16.92u w=4.38u l=0.5u
X158 vdd ota_0.vout out vdd pfet_03v3 ad=6.322p pd=16.92u as=5.163599p ps=17.56u w=4.38u l=0.5u
X159 out ota_0.vout vdd vdd pfet_03v3 ad=5.163599p pd=17.56u as=6.322p ps=16.92u w=4.38u l=0.5u
X160 out ota_0.vout vdd vdd pfet_03v3 ad=5.163599p pd=17.56u as=6.322p ps=16.92u w=4.38u l=0.5u
X161 out ota_0.vout vdd vdd pfet_03v3 ad=3.8988p pd=13.77u as=4.814p ps=13.61u w=4.38u l=0.5u
X162 vdd ota_0.vout out vdd pfet_03v3 ad=6.322p pd=16.92u as=5.163599p ps=17.56u w=4.38u l=0.5u
X163 vdd ota_0.vout out vdd pfet_03v3 ad=6.322p pd=16.92u as=3.8988p ps=13.77u w=4.38u l=0.5u
X164 vdd ota_0.vout out vdd pfet_03v3 ad=6.322p pd=16.92u as=5.163599p ps=17.56u w=4.38u l=0.5u
X165 out ota_0.vout vdd vdd pfet_03v3 ad=5.163599p pd=17.56u as=6.322p ps=16.92u w=4.38u l=0.5u
X166 out ota_0.vout vdd vdd pfet_03v3 ad=5.163599p pd=17.56u as=6.322p ps=16.92u w=4.38u l=0.5u
X167 out ota_0.vout vdd vdd pfet_03v3 ad=5.163599p pd=17.56u as=6.322p ps=16.92u w=4.38u l=0.5u
X168 vdd ota_0.vout out vdd pfet_03v3 ad=6.322p pd=16.92u as=5.163599p ps=17.56u w=4.38u l=0.5u
X169 out ota_0.vout vdd vdd pfet_03v3 ad=5.163599p pd=17.56u as=6.322p ps=16.92u w=4.38u l=0.5u
X170 out ota_0.vout vdd vdd pfet_03v3 ad=5.163599p pd=17.56u as=6.322p ps=16.92u w=4.38u l=0.5u
X171 out ota_0.vout vdd vdd pfet_03v3 ad=5.163599p pd=17.56u as=6.322p ps=16.92u w=4.38u l=0.5u
X172 vdd ota_0.vout out vdd pfet_03v3 ad=6.322p pd=16.92u as=5.163599p ps=17.56u w=4.38u l=0.5u
X173 out ota_0.vout vdd vdd pfet_03v3 ad=5.163599p pd=17.56u as=6.322p ps=16.92u w=4.38u l=0.5u
X174 vdd ota_0.vout out vdd pfet_03v3 ad=4.814p pd=13.61u as=5.163599p ps=17.56u w=4.38u l=0.5u
X175 out ota_0.vout vdd vdd pfet_03v3 ad=5.163599p pd=17.56u as=6.322p ps=16.92u w=4.38u l=0.5u
X176 vdd ota_0.vout out vdd pfet_03v3 ad=4.814p pd=13.61u as=3.8988p ps=13.77u w=4.38u l=0.5u
X177 out ota_0.vout vdd vdd pfet_03v3 ad=5.163599p pd=17.56u as=4.814p ps=13.61u w=4.38u l=0.5u
X178 vdd ota_0.vout out vdd pfet_03v3 ad=6.322p pd=16.92u as=5.163599p ps=17.56u w=4.38u l=0.5u
X179 out ota_0.vout vdd vdd pfet_03v3 ad=5.163599p pd=17.56u as=6.322p ps=16.92u w=4.38u l=0.5u
X180 vdd ota_0.vout out vdd pfet_03v3 ad=6.322p pd=16.92u as=5.163599p ps=17.56u w=4.38u l=0.5u
X181 vdd ota_0.vout out vdd pfet_03v3 ad=6.322p pd=16.92u as=5.163599p ps=17.56u w=4.38u l=0.5u
X182 vdd ota_0.vout out vdd pfet_03v3 ad=6.322p pd=16.92u as=5.163599p ps=17.56u w=4.38u l=0.5u
X183 vdd ota_0.vout out vdd pfet_03v3 ad=6.322p pd=16.92u as=5.163599p ps=17.56u w=4.38u l=0.5u
X184 vdd ota_0.vout out vdd pfet_03v3 ad=6.322p pd=16.92u as=5.163599p ps=17.56u w=4.38u l=0.5u
X185 vdd ota_0.vout out vdd pfet_03v3 ad=6.322p pd=16.92u as=5.163599p ps=17.56u w=4.38u l=0.5u
X186 out ota_0.vout vdd vdd pfet_03v3 ad=5.163599p pd=17.56u as=6.322p ps=16.92u w=4.38u l=0.5u
X187 out ota_0.vout vdd vdd pfet_03v3 ad=5.163599p pd=17.56u as=6.322p ps=16.92u w=4.38u l=0.5u
X188 out ota_0.vout vdd vdd pfet_03v3 ad=5.163599p pd=17.56u as=6.322p ps=16.92u w=4.38u l=0.5u
X189 vdd ota_0.vout out vdd pfet_03v3 ad=6.322p pd=16.92u as=5.163599p ps=17.56u w=4.38u l=0.5u
X190 vdd ota_0.vout out vdd pfet_03v3 ad=6.322p pd=16.92u as=5.163599p ps=17.56u w=4.38u l=0.5u
X191 vdd ota_0.vout out vdd pfet_03v3 ad=6.322p pd=16.92u as=5.163599p ps=17.56u w=4.38u l=0.5u
X192 vdd ota_0.vout out vdd pfet_03v3 ad=6.322p pd=16.92u as=5.163599p ps=17.56u w=4.38u l=0.5u
X193 out ota_0.vout vdd vdd pfet_03v3 ad=5.163599p pd=17.56u as=6.322p ps=16.92u w=4.38u l=0.5u
X194 out ota_0.vout vdd vdd pfet_03v3 ad=5.163599p pd=17.56u as=6.322p ps=16.92u w=4.38u l=0.5u
X195 out ota_0.vout vdd vdd pfet_03v3 ad=5.163599p pd=17.56u as=6.322p ps=16.92u w=4.38u l=0.5u
X196 out ota_0.vout vdd vdd pfet_03v3 ad=5.163599p pd=17.56u as=6.322p ps=16.92u w=4.38u l=0.5u
X197 out ota_0.vout vdd vdd pfet_03v3 ad=5.163599p pd=17.56u as=6.322p ps=16.92u w=4.38u l=0.5u
X198 vdd ota_0.vout out vdd pfet_03v3 ad=6.322p pd=16.92u as=5.163599p ps=17.56u w=4.38u l=0.5u
X199 out ota_0.vout vdd vdd pfet_03v3 ad=5.163599p pd=17.56u as=6.322p ps=16.92u w=4.38u l=0.5u
X200 out ota_0.vout vdd vdd pfet_03v3 ad=5.163599p pd=17.56u as=6.322p ps=16.92u w=4.38u l=0.5u
X201 vss vss vss vss nfet_03v3 ad=0.65p pd=3.02u as=33.475p ps=0.14433m w=2.5u l=1u
X202 vdd ota_0.vout out vdd pfet_03v3 ad=6.322p pd=16.92u as=5.163599p ps=17.56u w=4.38u l=0.5u
X203 vdd ota_0.vout out vdd pfet_03v3 ad=6.322p pd=16.92u as=5.163599p ps=17.56u w=4.38u l=0.5u
X204 out ota_0.vout vdd vdd pfet_03v3 ad=5.163599p pd=17.56u as=6.322p ps=16.92u w=4.38u l=0.5u
X205 vdd ota_0.vout out vdd pfet_03v3 ad=6.322p pd=16.92u as=5.163599p ps=17.56u w=4.38u l=0.5u
X206 out ota_0.vout vdd vdd pfet_03v3 ad=3.8988p pd=13.77u as=4.814p ps=13.61u w=4.38u l=0.5u
X207 out ota_0.vout vdd vdd pfet_03v3 ad=3.8988p pd=13.77u as=4.814p ps=13.61u w=4.38u l=0.5u
X208 vss iref ota_0.vout vss nfet_03v3 ad=0.65p pd=3.02u as=0.65p ps=3.02u w=2.5u l=1u
X209 vdd ota_0.vout out vdd pfet_03v3 ad=6.322p pd=16.92u as=5.163599p ps=17.56u w=4.38u l=0.5u
X210 vdd ota_0.vout out vdd pfet_03v3 ad=6.322p pd=16.92u as=5.163599p ps=17.56u w=4.38u l=0.5u
X211 vdd ota_0.vout out vdd pfet_03v3 ad=6.322p pd=16.92u as=5.163599p ps=17.56u w=4.38u l=0.5u
X212 vdd ota_0.vout out vdd pfet_03v3 ad=6.322p pd=16.92u as=5.163599p ps=17.56u w=4.38u l=0.5u
X213 out ota_0.vout vdd vdd pfet_03v3 ad=5.163599p pd=17.56u as=6.322p ps=16.92u w=4.38u l=0.5u
X214 vdd ota_0.vout out vdd pfet_03v3 ad=6.322p pd=16.92u as=5.163599p ps=17.56u w=4.38u l=0.5u
X215 vdd ota_0.vout out vdd pfet_03v3 ad=6.322p pd=16.92u as=5.163599p ps=17.56u w=4.38u l=0.5u
X216 vdd ota_0.vout out vdd pfet_03v3 ad=4.814p pd=13.61u as=3.8988p ps=13.77u w=4.38u l=0.5u
X217 out ota_0.vout vdd vdd pfet_03v3 ad=5.163599p pd=17.56u as=6.322p ps=16.92u w=4.38u l=0.5u
X218 vdd ota_0.vout out vdd pfet_03v3 ad=6.322p pd=16.92u as=5.163599p ps=17.56u w=4.38u l=0.5u
X219 vdd ota_0.vout out vdd pfet_03v3 ad=6.322p pd=16.92u as=5.163599p ps=17.56u w=4.38u l=0.5u
X220 a_29974_9020# a_34102_7820# vss ppolyf_u_1k r_width=1u r_length=20u
X221 vdd a_33541_n2038# a_33541_n2038# vdd pfet_03v3 ad=1.3p pd=5.52u as=1.3p ps=5.52u w=5u l=1u
X222 out ota_0.vout vdd vdd pfet_03v3 ad=5.163599p pd=17.56u as=6.322p ps=16.92u w=4.38u l=0.5u
X223 out ota_0.vout vdd vdd pfet_03v3 ad=5.163599p pd=17.56u as=6.322p ps=16.92u w=4.38u l=0.5u
X224 out ota_0.vout vdd vdd pfet_03v3 ad=5.163599p pd=17.56u as=6.322p ps=16.92u w=4.38u l=0.5u
X225 vdd ota_0.vout out vdd pfet_03v3 ad=6.322p pd=16.92u as=5.163599p ps=17.56u w=4.38u l=0.5u
X226 vdd ota_0.vout out vdd pfet_03v3 ad=6.322p pd=16.92u as=5.163599p ps=17.56u w=4.38u l=0.5u
X227 vdd ota_0.vout out vdd pfet_03v3 ad=6.322p pd=16.92u as=5.163599p ps=17.56u w=4.38u l=0.5u
X228 out ota_0.vout vdd vdd pfet_03v3 ad=5.163599p pd=17.56u as=6.322p ps=16.92u w=4.38u l=0.5u
X229 out ota_0.vout vdd vdd pfet_03v3 ad=5.163599p pd=17.56u as=6.322p ps=16.92u w=4.38u l=0.5u
X230 out ota_0.vout vdd vdd pfet_03v3 ad=5.163599p pd=17.56u as=6.322p ps=16.92u w=4.38u l=0.5u
X231 out ota_0.vout vdd vdd pfet_03v3 ad=5.163599p pd=17.56u as=6.322p ps=16.92u w=4.38u l=0.5u
X232 out ota_0.vout vdd vdd pfet_03v3 ad=5.163599p pd=17.56u as=6.322p ps=16.92u w=4.38u l=0.5u
X233 vdd ota_0.vout out vdd pfet_03v3 ad=4.814p pd=13.61u as=5.163599p ps=17.56u w=4.38u l=0.5u
X234 vdd ota_0.vout out vdd pfet_03v3 ad=6.322p pd=16.92u as=5.163599p ps=17.56u w=4.38u l=0.5u
X235 vdd ota_0.vout out vdd pfet_03v3 ad=6.322p pd=16.92u as=5.163599p ps=17.56u w=4.38u l=0.5u
X236 out ota_0.vout vdd vdd pfet_03v3 ad=5.163599p pd=17.56u as=6.322p ps=16.92u w=4.38u l=0.5u
X237 vdd ota_0.vout out vdd pfet_03v3 ad=4.814p pd=13.61u as=3.8988p ps=13.77u w=4.38u l=0.5u
X238 out ota_0.vout vdd vdd pfet_03v3 ad=5.163599p pd=17.56u as=6.322p ps=16.92u w=4.38u l=0.5u
X239 out ota_0.vout vdd vdd pfet_03v3 ad=5.163599p pd=17.56u as=6.322p ps=16.92u w=4.38u l=0.5u
X240 out ota_0.vout vdd vdd pfet_03v3 ad=5.163599p pd=17.56u as=6.322p ps=16.92u w=4.38u l=0.5u
X241 vdd ota_0.vout out vdd pfet_03v3 ad=4.814p pd=13.61u as=3.8988p ps=13.77u w=4.38u l=0.5u
X242 out ota_0.vout vdd vdd pfet_03v3 ad=5.163599p pd=17.56u as=6.322p ps=16.92u w=4.38u l=0.5u
X243 vdd ota_0.vout out vdd pfet_03v3 ad=6.322p pd=16.92u as=5.163599p ps=17.56u w=4.38u l=0.5u
X244 out ota_0.vout vdd vdd pfet_03v3 ad=5.163599p pd=17.56u as=6.322p ps=16.92u w=4.38u l=0.5u
X245 vdd ota_0.vout out vdd pfet_03v3 ad=6.322p pd=16.92u as=3.8988p ps=13.77u w=4.38u l=0.5u
X246 vdd ota_0.vout out vdd pfet_03v3 ad=6.322p pd=16.92u as=5.163599p ps=17.56u w=4.38u l=0.5u
X247 vdd ota_0.vout out vdd pfet_03v3 ad=6.322p pd=16.92u as=5.163599p ps=17.56u w=4.38u l=0.5u
X248 out ota_0.vout vdd vdd pfet_03v3 ad=5.163599p pd=17.56u as=6.322p ps=16.92u w=4.38u l=0.5u
X249 out ota_0.vout vdd vdd pfet_03v3 ad=5.163599p pd=17.56u as=6.322p ps=16.92u w=4.38u l=0.5u
X250 out ota_0.vout vdd vdd pfet_03v3 ad=5.163599p pd=17.56u as=6.322p ps=16.92u w=4.38u l=0.5u
X251 vdd ota_0.vout out vdd pfet_03v3 ad=6.322p pd=16.92u as=5.163599p ps=17.56u w=4.38u l=0.5u
X252 out ota_0.vout vdd vdd pfet_03v3 ad=5.163599p pd=17.56u as=6.322p ps=16.92u w=4.38u l=0.5u
X253 vdd ota_0.vout out vdd pfet_03v3 ad=6.322p pd=16.92u as=5.163599p ps=17.56u w=4.38u l=0.5u
X254 out ota_0.vout vdd vdd pfet_03v3 ad=5.163599p pd=17.56u as=6.322p ps=16.92u w=4.38u l=0.5u
X255 out ota_0.vout vdd vdd pfet_03v3 ad=5.163599p pd=17.56u as=6.322p ps=16.92u w=4.38u l=0.5u
X256 out ota_0.vout vdd vdd pfet_03v3 ad=5.163599p pd=17.56u as=6.322p ps=16.92u w=4.38u l=0.5u
X257 vdd ota_0.vout out vdd pfet_03v3 ad=6.322p pd=16.92u as=5.163599p ps=17.56u w=4.38u l=0.5u
X258 a_31108_n1180# iref vss vss nfet_03v3 ad=0.65p pd=3.02u as=0.65p ps=3.02u w=2.5u l=1u
X259 vdd ota_0.vout out vdd pfet_03v3 ad=6.322p pd=16.92u as=5.163599p ps=17.56u w=4.38u l=0.5u
X260 out ota_0.vout vdd vdd pfet_03v3 ad=5.163599p pd=17.56u as=6.322p ps=16.92u w=4.38u l=0.5u
X261 a_29974_13220# a_34102_12620# vss ppolyf_u_1k r_width=1u r_length=20u
X262 vdd ota_0.vout out vdd pfet_03v3 ad=6.322p pd=16.92u as=5.163599p ps=17.56u w=4.38u l=0.5u
X263 vdd ota_0.vout out vdd pfet_03v3 ad=4.814p pd=13.61u as=3.8988p ps=13.77u w=4.38u l=0.5u
X264 vdd ota_0.vout out vdd pfet_03v3 ad=6.322p pd=16.92u as=5.163599p ps=17.56u w=4.38u l=0.5u
X265 vss vss vss vss nfet_03v3 ad=1.525p pd=6.22u as=0 ps=0 w=2.5u l=1u
X266 vdd ota_0.vout out vdd pfet_03v3 ad=4.814p pd=13.61u as=5.163599p ps=17.56u w=4.38u l=0.5u
X267 vdd ota_0.vout out vdd pfet_03v3 ad=4.814p pd=13.61u as=2.6079p ps=9.38u w=4.38u l=0.5u
X268 vdd ota_0.vout out vdd pfet_03v3 ad=6.322p pd=16.92u as=5.163599p ps=17.56u w=4.38u l=0.5u
X269 vdd ota_0.vout out vdd pfet_03v3 ad=6.322p pd=16.92u as=5.163599p ps=17.56u w=4.38u l=0.5u
X270 out ota_0.vout vdd vdd pfet_03v3 ad=5.163599p pd=17.56u as=6.322p ps=16.92u w=4.38u l=0.5u
X271 out ota_0.vout vdd vdd pfet_03v3 ad=5.163599p pd=17.56u as=6.322p ps=16.92u w=4.38u l=0.5u
X272 vdd ota_0.vout out vdd pfet_03v3 ad=6.322p pd=16.92u as=5.163599p ps=17.56u w=4.38u l=0.5u
X273 vdd ota_0.vout out vdd pfet_03v3 ad=6.322p pd=16.92u as=5.163599p ps=17.56u w=4.38u l=0.5u
X274 vdd ota_0.vout out vdd pfet_03v3 ad=6.322p pd=16.92u as=5.163599p ps=17.56u w=4.38u l=0.5u
X275 vdd ota_0.vout out vdd pfet_03v3 ad=6.322p pd=16.92u as=5.163599p ps=17.56u w=4.38u l=0.5u
X276 vdd ota_0.vout out vdd pfet_03v3 ad=6.322p pd=16.92u as=5.163599p ps=17.56u w=4.38u l=0.5u
X277 out ota_0.vout vdd vdd pfet_03v3 ad=5.163599p pd=17.56u as=6.322p ps=16.92u w=4.38u l=0.5u
X278 vdd ota_0.vout out vdd pfet_03v3 ad=6.322p pd=16.92u as=5.163599p ps=17.56u w=4.38u l=0.5u
X279 out ota_0.vout vdd vdd pfet_03v3 ad=5.163599p pd=17.56u as=6.322p ps=16.92u w=4.38u l=0.5u
X280 out ota_0.vout vdd vdd pfet_03v3 ad=5.163599p pd=17.56u as=6.322p ps=16.92u w=4.38u l=0.5u
X281 vdd ota_0.vout out vdd pfet_03v3 ad=6.322p pd=16.92u as=5.163599p ps=17.56u w=4.38u l=0.5u
X282 vdd ota_0.vout out vdd pfet_03v3 ad=6.322p pd=16.92u as=5.163599p ps=17.56u w=4.38u l=0.5u
X283 vdd ota_0.vout out vdd pfet_03v3 ad=6.322p pd=16.92u as=5.163599p ps=17.56u w=4.38u l=0.5u
X284 out ota_0.vout vdd vdd pfet_03v3 ad=5.163599p pd=17.56u as=6.322p ps=16.92u w=4.38u l=0.5u
X285 out ota_0.vout vdd vdd pfet_03v3 ad=5.163599p pd=17.56u as=6.322p ps=16.92u w=4.38u l=0.5u
X286 out ota_0.vout vdd vdd pfet_03v3 ad=5.163599p pd=17.56u as=6.322p ps=16.92u w=4.38u l=0.5u
X287 out ota_0.vout vdd vdd pfet_03v3 ad=5.163599p pd=17.56u as=6.322p ps=16.92u w=4.38u l=0.5u
X288 out ota_0.vout vdd vdd pfet_03v3 ad=5.163599p pd=17.56u as=6.322p ps=16.92u w=4.38u l=0.5u
X289 vdd ota_0.vout out vdd pfet_03v3 ad=6.322p pd=16.92u as=5.163599p ps=17.56u w=4.38u l=0.5u
X290 out ota_0.vout vdd vdd pfet_03v3 ad=5.163599p pd=17.56u as=4.814p ps=13.61u w=4.38u l=0.5u
X291 vdd ota_0.vout out vdd pfet_03v3 ad=6.322p pd=16.92u as=5.163599p ps=17.56u w=4.38u l=0.5u
X292 vdd ota_0.vout out vdd pfet_03v3 ad=6.322p pd=16.92u as=5.163599p ps=17.56u w=4.38u l=0.5u
X293 out ota_0.vout vdd vdd pfet_03v3 ad=5.163599p pd=17.56u as=6.322p ps=16.92u w=4.38u l=0.5u
X294 out ota_0.vout vdd vdd pfet_03v3 ad=5.163599p pd=17.56u as=6.322p ps=16.92u w=4.38u l=0.5u
X295 vdd ota_0.vout out vdd pfet_03v3 ad=6.322p pd=16.92u as=5.163599p ps=17.56u w=4.38u l=0.5u
X296 vdd ota_0.vout out vdd pfet_03v3 ad=6.322p pd=16.92u as=5.163599p ps=17.56u w=4.38u l=0.5u
X297 vdd ota_0.vout out vdd pfet_03v3 ad=6.322p pd=16.92u as=5.163599p ps=17.56u w=4.38u l=0.5u
X298 vdd ota_0.vout out vdd pfet_03v3 ad=6.322p pd=16.92u as=5.163599p ps=17.56u w=4.38u l=0.5u
X299 out ota_0.vout vdd vdd pfet_03v3 ad=5.163599p pd=17.56u as=6.322p ps=16.92u w=4.38u l=0.5u
X300 vdd ota_0.vout out vdd pfet_03v3 ad=6.322p pd=16.92u as=5.163599p ps=17.56u w=4.38u l=0.5u
X301 vdd ota_0.vout out vdd pfet_03v3 ad=6.322p pd=16.92u as=5.163599p ps=17.56u w=4.38u l=0.5u
X302 vdd ota_0.vout out vdd pfet_03v3 ad=6.322p pd=16.92u as=5.163599p ps=17.56u w=4.38u l=0.5u
X303 vdd ota_0.vout out vdd pfet_03v3 ad=6.322p pd=16.92u as=5.163599p ps=17.56u w=4.38u l=0.5u
X304 out ota_0.vout vdd vdd pfet_03v3 ad=3.8988p pd=13.77u as=4.814p ps=13.61u w=4.38u l=0.5u
X305 out ota_0.vout vdd vdd pfet_03v3 ad=5.163599p pd=17.56u as=6.322p ps=16.92u w=4.38u l=0.5u
X306 out ota_0.vout vdd vdd pfet_03v3 ad=3.8988p pd=13.77u as=6.322p ps=16.92u w=4.38u l=0.5u
X307 out ota_0.vout vdd vdd pfet_03v3 ad=3.8988p pd=13.77u as=4.814p ps=13.61u w=4.38u l=0.5u
X308 out ota_0.vout vdd vdd pfet_03v3 ad=5.163599p pd=17.56u as=6.322p ps=16.92u w=4.38u l=0.5u
X309 vdd ota_0.vout out vdd pfet_03v3 ad=6.322p pd=16.92u as=5.163599p ps=17.56u w=4.38u l=0.5u
X310 vdd ota_0.vout out vdd pfet_03v3 ad=6.322p pd=16.92u as=5.163599p ps=17.56u w=4.38u l=0.5u
X311 out ota_0.vout vdd vdd pfet_03v3 ad=3.8988p pd=13.77u as=6.322p ps=16.92u w=4.38u l=0.5u
X312 vdd ota_0.vout out vdd pfet_03v3 ad=6.322p pd=16.92u as=5.163599p ps=17.56u w=4.38u l=0.5u
X313 out ota_0.vout vdd vdd pfet_03v3 ad=5.163599p pd=17.56u as=6.322p ps=16.92u w=4.38u l=0.5u