* NGSPICE file created from asig5v_io_cell.ext - technology: gf180mcuC

.subckt asig5v_io_cell VSS VDD ASIG5V DVSS DVDD
X0 DVDD.t1 DVSS.t37 cap_nmos_06v0 c_width=15u c_length=15u
X1 DVDD.t2 DVSS.t36 cap_nmos_06v0 c_width=15u c_length=15u
X2 DVDD.t3 DVSS.t35 cap_nmos_06v0 c_width=15u c_length=15u
X3 DVDD.t4 DVSS.t34 cap_nmos_06v0 c_width=15u c_length=15u
X4 DVDD.t5 DVSS.t33 cap_nmos_06v0 c_width=15u c_length=15u
D0 DVSS.t4 DVDD.t6 diode_nd2ps_06v0 pj=82u area=40p
X5 DVDD.t7 DVSS.t32 cap_nmos_06v0 c_width=15u c_length=15u
X6 DVDD.t8 DVSS.t31 cap_nmos_06v0 c_width=15u c_length=15u
X7 DVDD.t9 DVSS.t30 cap_nmos_06v0 c_width=15u c_length=15u
X8 DVDD.t10 DVSS.t29 cap_nmos_06v0 c_width=15u c_length=15u
X9 DVDD.t11 DVSS.t28 cap_nmos_06v0 c_width=15u c_length=15u
X10 DVDD.t12 DVSS.t27 cap_nmos_06v0 c_width=15u c_length=15u
X11 DVDD.t13 DVSS.t26 cap_nmos_06v0 c_width=15u c_length=15u
X12 DVDD.t14 DVSS.t25 cap_nmos_06v0 c_width=15u c_length=15u
X13 DVDD.t15 DVSS.t24 cap_nmos_06v0 c_width=15u c_length=15u
X14 DVDD.t16 DVSS.t23 cap_nmos_06v0 c_width=15u c_length=15u
D1 DVSS.t0 ASIG5V.t0 diode_nd2ps_06v0 pj=0.106m area=0.15n
X15 DVDD.t17 DVSS.t22 cap_nmos_06v0 c_width=15u c_length=15u
X16 DVDD.t18 DVSS.t21 cap_nmos_06v0 c_width=15u c_length=15u
X17 DVDD.t19 DVSS.t20 cap_nmos_06v0 c_width=15u c_length=15u
D2 DVSS.t0 ASIG5V.t1 diode_nd2ps_06v0 pj=0.106m area=0.15n
D3 ASIG5V.t2 DVDD.t0 diode_pd2nw_06v0 pj=0.106m area=0.15n
X18 DVDD.t20 DVSS.t19 cap_nmos_06v0 c_width=15u c_length=15u
X19 DVDD.t21 DVSS.t18 cap_nmos_06v0 c_width=15u c_length=15u
D4 ASIG5V.t3 DVDD.t0 diode_pd2nw_06v0 pj=0.106m area=0.15n
D5 DVSS.t0 ASIG5V.t4 diode_nd2ps_06v0 pj=0.106m area=0.15n
X20 DVDD.t22 DVSS.t17 cap_nmos_06v0 c_width=15u c_length=15u
D6 ASIG5V.t5 DVDD.t0 diode_pd2nw_06v0 pj=0.106m area=0.15n
X21 DVDD.t23 DVSS.t16 cap_nmos_06v0 c_width=15u c_length=15u
X22 DVDD.t24 DVSS.t15 cap_nmos_06v0 c_width=15u c_length=15u
D7 DVSS.t4 DVDD.t25 diode_nd2ps_06v0 pj=82u area=40p
X23 DVDD.t26 DVSS.t14 cap_nmos_06v0 c_width=15u c_length=15u
X24 DVDD.t27 DVSS.t13 cap_nmos_06v0 c_width=15u c_length=15u
X25 DVDD.t28 DVSS.t12 cap_nmos_06v0 c_width=15u c_length=15u
X26 DVDD.t29 DVSS.t11 cap_nmos_06v0 c_width=15u c_length=15u
X27 DVDD.t30 DVSS.t10 cap_nmos_06v0 c_width=15u c_length=15u
D8 DVSS.t4 DVDD.t31 diode_nd2ps_06v0 pj=82u area=40p
X28 DVDD.t32 DVSS.t9 cap_nmos_06v0 c_width=15u c_length=15u
D9 DVSS.t0 ASIG5V.t6 diode_nd2ps_06v0 pj=0.106m area=0.15n
X29 DVDD.t33 DVSS.t8 cap_nmos_06v0 c_width=15u c_length=15u
X30 DVDD.t34 DVSS.t7 cap_nmos_06v0 c_width=15u c_length=15u
X31 DVDD.t35 DVSS.t6 cap_nmos_06v0 c_width=15u c_length=15u
X32 DVDD.t36 DVSS.t5 cap_nmos_06v0 c_width=15u c_length=15u
D10 DVSS.t4 DVDD.t37 diode_nd2ps_06v0 pj=82u area=40p
D11 ASIG5V.t7 DVDD.t0 diode_pd2nw_06v0 pj=0.106m area=0.15n
X33 DVDD.t38 DVSS.t3 cap_nmos_06v0 c_width=15u c_length=15u
X34 DVDD.t39 DVSS.t2 cap_nmos_06v0 c_width=15u c_length=15u
X35 DVDD.t40 DVSS.t1 cap_nmos_06v0 c_width=15u c_length=15u
R0 DVDD.n1226 DVDD.n1225 13378
R1 DVDD.n1787 DVDD.n1225 13378
R2 DVDD.n1787 DVDD.n1786 13378
R3 DVDD.n1786 DVDD.n1226 13378
R4 DVDD.n8034 DVDD.n8007 12277
R5 DVDD.n8008 DVDD.n8007 12277
R6 DVDD.n8033 DVDD.n8008 12277
R7 DVDD.n8034 DVDD.n8033 12277
R8 DVDD.n1727 DVDD.t0 893.734
R9 DVDD.n1756 DVDD.t0 893.734
R10 DVDD.n1288 DVDD.n1256 150.477
R11 DVDD.n1728 DVDD.n1288 150.477
R12 DVDD.n1726 DVDD.n1253 150.477
R13 DVDD.n1757 DVDD.n1253 150.477
R14 DVDD.n1730 DVDD.n1729 84.2907
R15 DVDD.n1730 DVDD.n1259 84.2907
R16 DVDD.n1625 DVDD.n1624 84.2907
R17 DVDD.n1625 DVDD.n1258 84.2907
R18 DVDD.n1561 DVDD.n1292 84.2907
R19 DVDD.n1561 DVDD.n1254 84.2907
R20 DVDD.n1727 DVDD.n1290 26.3372
R21 DVDD.n1756 DVDD.n1257 26.3372
R22 DVDD.n1259 DVDD.n1256 12.9878
R23 DVDD.n1624 DVDD.n1287 12.9878
R24 DVDD.n1729 DVDD.n1287 12.9878
R25 DVDD.n1729 DVDD.n1728 12.9878
R26 DVDD.n1255 DVDD.n1254 12.9878
R27 DVDD.n1258 DVDD.n1255 12.9878
R28 DVDD.n1755 DVDD.n1258 12.9878
R29 DVDD.n1755 DVDD.n1259 12.9878
R30 DVDD.n1726 DVDD.n1292 12.9878
R31 DVDD.n1292 DVDD.n1291 12.9878
R32 DVDD.n1624 DVDD.n1291 12.9878
R33 DVDD.n1757 DVDD.n1254 12.9878
R34 DVDD.n8123 DVDD.n8122 4.5005
R35 DVDD.n8122 DVDD.n2600 4.5005
R36 DVDD.n8122 DVDD.n2623 4.5005
R37 DVDD.n8122 DVDD.n8121 4.5005
R38 DVDD.n8123 DVDD.n2620 4.5005
R39 DVDD.n2620 DVDD.n2600 4.5005
R40 DVDD.n2623 DVDD.n2620 4.5005
R41 DVDD.n8121 DVDD.n2620 4.5005
R42 DVDD.n8123 DVDD.n2619 4.5005
R43 DVDD.n2619 DVDD.n2600 4.5005
R44 DVDD.n2623 DVDD.n2619 4.5005
R45 DVDD.n8121 DVDD.n2619 4.5005
R46 DVDD.n8123 DVDD.n2618 4.5005
R47 DVDD.n2618 DVDD.n2600 4.5005
R48 DVDD.n2623 DVDD.n2618 4.5005
R49 DVDD.n8121 DVDD.n2618 4.5005
R50 DVDD.n8123 DVDD.n2617 4.5005
R51 DVDD.n2617 DVDD.n2600 4.5005
R52 DVDD.n2623 DVDD.n2617 4.5005
R53 DVDD.n8121 DVDD.n2617 4.5005
R54 DVDD.n8123 DVDD.n2616 4.5005
R55 DVDD.n2616 DVDD.n2600 4.5005
R56 DVDD.n2623 DVDD.n2616 4.5005
R57 DVDD.n8121 DVDD.n2616 4.5005
R58 DVDD.n8123 DVDD.n2615 4.5005
R59 DVDD.n2615 DVDD.n2600 4.5005
R60 DVDD.n2623 DVDD.n2615 4.5005
R61 DVDD.n8121 DVDD.n2615 4.5005
R62 DVDD.n8123 DVDD.n2614 4.5005
R63 DVDD.n2614 DVDD.n2600 4.5005
R64 DVDD.n2623 DVDD.n2614 4.5005
R65 DVDD.n8121 DVDD.n2614 4.5005
R66 DVDD.n8123 DVDD.n2613 4.5005
R67 DVDD.n2613 DVDD.n2600 4.5005
R68 DVDD.n2623 DVDD.n2613 4.5005
R69 DVDD.n8121 DVDD.n2613 4.5005
R70 DVDD.n8123 DVDD.n2612 4.5005
R71 DVDD.n2612 DVDD.n2600 4.5005
R72 DVDD.n8121 DVDD.n2612 4.5005
R73 DVDD.n7396 DVDD.n2600 4.5005
R74 DVDD.n8121 DVDD.n7396 4.5005
R75 DVDD.n7400 DVDD.n2600 4.5005
R76 DVDD.n8121 DVDD.n7400 4.5005
R77 DVDD.n7394 DVDD.n2600 4.5005
R78 DVDD.n8121 DVDD.n7394 4.5005
R79 DVDD.n7402 DVDD.n2600 4.5005
R80 DVDD.n8121 DVDD.n7402 4.5005
R81 DVDD.n7393 DVDD.n2600 4.5005
R82 DVDD.n8121 DVDD.n7393 4.5005
R83 DVDD.n8120 DVDD.n2600 4.5005
R84 DVDD.n8120 DVDD.n2623 4.5005
R85 DVDD.n8121 DVDD.n8120 4.5005
R86 DVDD.n8123 DVDD.n2608 4.5005
R87 DVDD.n2608 DVDD.n2600 4.5005
R88 DVDD.n2623 DVDD.n2608 4.5005
R89 DVDD.n8121 DVDD.n2608 4.5005
R90 DVDD.n8123 DVDD.n2607 4.5005
R91 DVDD.n2607 DVDD.n2600 4.5005
R92 DVDD.n2623 DVDD.n2607 4.5005
R93 DVDD.n8121 DVDD.n2607 4.5005
R94 DVDD.n8123 DVDD.n2606 4.5005
R95 DVDD.n2606 DVDD.n2600 4.5005
R96 DVDD.n2623 DVDD.n2606 4.5005
R97 DVDD.n8121 DVDD.n2606 4.5005
R98 DVDD.n8123 DVDD.n2605 4.5005
R99 DVDD.n2605 DVDD.n2600 4.5005
R100 DVDD.n2623 DVDD.n2605 4.5005
R101 DVDD.n8121 DVDD.n2605 4.5005
R102 DVDD.n8123 DVDD.n2604 4.5005
R103 DVDD.n2604 DVDD.n2600 4.5005
R104 DVDD.n2623 DVDD.n2604 4.5005
R105 DVDD.n8121 DVDD.n2604 4.5005
R106 DVDD.n8123 DVDD.n2603 4.5005
R107 DVDD.n2603 DVDD.n2600 4.5005
R108 DVDD.n2623 DVDD.n2603 4.5005
R109 DVDD.n8121 DVDD.n2603 4.5005
R110 DVDD.n8123 DVDD.n2602 4.5005
R111 DVDD.n2602 DVDD.n2600 4.5005
R112 DVDD.n2623 DVDD.n2602 4.5005
R113 DVDD.n8121 DVDD.n2602 4.5005
R114 DVDD.n8123 DVDD.n2601 4.5005
R115 DVDD.n2601 DVDD.n2600 4.5005
R116 DVDD.n2623 DVDD.n2601 4.5005
R117 DVDD.n8121 DVDD.n2601 4.5005
R118 DVDD.n7407 DVDD.n7404 4.5005
R119 DVDD.n7409 DVDD.n7404 4.5005
R120 DVDD.n7406 DVDD.n7404 4.5005
R121 DVDD.n8095 DVDD.n7404 4.5005
R122 DVDD.n8096 DVDD.n7407 4.5005
R123 DVDD.n8096 DVDD.n7409 4.5005
R124 DVDD.n8096 DVDD.n7406 4.5005
R125 DVDD.n8096 DVDD.n8095 4.5005
R126 DVDD.n7429 DVDD.n7407 4.5005
R127 DVDD.n7429 DVDD.n7409 4.5005
R128 DVDD.n7429 DVDD.n7406 4.5005
R129 DVDD.n8095 DVDD.n7429 4.5005
R130 DVDD.n7431 DVDD.n7407 4.5005
R131 DVDD.n7431 DVDD.n7409 4.5005
R132 DVDD.n7431 DVDD.n7406 4.5005
R133 DVDD.n8095 DVDD.n7431 4.5005
R134 DVDD.n7428 DVDD.n7407 4.5005
R135 DVDD.n7428 DVDD.n7409 4.5005
R136 DVDD.n7428 DVDD.n7406 4.5005
R137 DVDD.n8095 DVDD.n7428 4.5005
R138 DVDD.n7432 DVDD.n7407 4.5005
R139 DVDD.n7432 DVDD.n7409 4.5005
R140 DVDD.n7432 DVDD.n7406 4.5005
R141 DVDD.n8095 DVDD.n7432 4.5005
R142 DVDD.n7427 DVDD.n7407 4.5005
R143 DVDD.n7427 DVDD.n7409 4.5005
R144 DVDD.n7427 DVDD.n7406 4.5005
R145 DVDD.n8095 DVDD.n7427 4.5005
R146 DVDD.n7433 DVDD.n7407 4.5005
R147 DVDD.n7433 DVDD.n7409 4.5005
R148 DVDD.n7433 DVDD.n7406 4.5005
R149 DVDD.n8095 DVDD.n7433 4.5005
R150 DVDD.n7426 DVDD.n7407 4.5005
R151 DVDD.n7426 DVDD.n7409 4.5005
R152 DVDD.n7426 DVDD.n7406 4.5005
R153 DVDD.n8095 DVDD.n7426 4.5005
R154 DVDD.n7434 DVDD.n7407 4.5005
R155 DVDD.n7434 DVDD.n7409 4.5005
R156 DVDD.n7434 DVDD.n7406 4.5005
R157 DVDD.n8095 DVDD.n7434 4.5005
R158 DVDD.n7425 DVDD.n7407 4.5005
R159 DVDD.n7425 DVDD.n7409 4.5005
R160 DVDD.n7425 DVDD.n7406 4.5005
R161 DVDD.n8095 DVDD.n7425 4.5005
R162 DVDD.n7435 DVDD.n7407 4.5005
R163 DVDD.n7435 DVDD.n7409 4.5005
R164 DVDD.n7435 DVDD.n7406 4.5005
R165 DVDD.n8095 DVDD.n7435 4.5005
R166 DVDD.n7424 DVDD.n7407 4.5005
R167 DVDD.n7424 DVDD.n7409 4.5005
R168 DVDD.n7424 DVDD.n7406 4.5005
R169 DVDD.n8095 DVDD.n7424 4.5005
R170 DVDD.n7436 DVDD.n7407 4.5005
R171 DVDD.n7436 DVDD.n7409 4.5005
R172 DVDD.n7436 DVDD.n7406 4.5005
R173 DVDD.n8095 DVDD.n7436 4.5005
R174 DVDD.n7423 DVDD.n7407 4.5005
R175 DVDD.n7423 DVDD.n7409 4.5005
R176 DVDD.n7423 DVDD.n7406 4.5005
R177 DVDD.n8095 DVDD.n7423 4.5005
R178 DVDD.n7438 DVDD.n7407 4.5005
R179 DVDD.n7438 DVDD.n7409 4.5005
R180 DVDD.n8095 DVDD.n7438 4.5005
R181 DVDD.n8095 DVDD.n7422 4.5005
R182 DVDD.n7422 DVDD.n7407 4.5005
R183 DVDD.n7420 DVDD.n7406 4.5005
R184 DVDD.n7420 DVDD.n7407 4.5005
R185 DVDD.n7418 DVDD.n7406 4.5005
R186 DVDD.n7418 DVDD.n7407 4.5005
R187 DVDD.n7416 DVDD.n7406 4.5005
R188 DVDD.n7416 DVDD.n7407 4.5005
R189 DVDD.n7414 DVDD.n7406 4.5005
R190 DVDD.n7414 DVDD.n7407 4.5005
R191 DVDD.n7412 DVDD.n7406 4.5005
R192 DVDD.n7412 DVDD.n7407 4.5005
R193 DVDD.n7439 DVDD.n7406 4.5005
R194 DVDD.n7439 DVDD.n7407 4.5005
R195 DVDD.n8095 DVDD.n8094 4.5005
R196 DVDD.n8094 DVDD.n7406 4.5005
R197 DVDD.n8094 DVDD.n7407 4.5005
R198 DVDD.n8093 DVDD.n7442 4.5005
R199 DVDD.n8093 DVDD.n7443 4.5005
R200 DVDD.n8093 DVDD.n8092 4.5005
R201 DVDD.n7458 DVDD.n7443 4.5005
R202 DVDD.n8092 DVDD.n7458 4.5005
R203 DVDD.n7455 DVDD.n7443 4.5005
R204 DVDD.n8092 DVDD.n7455 4.5005
R205 DVDD.n7460 DVDD.n7443 4.5005
R206 DVDD.n8092 DVDD.n7460 4.5005
R207 DVDD.n7454 DVDD.n7443 4.5005
R208 DVDD.n8092 DVDD.n7454 4.5005
R209 DVDD.n7462 DVDD.n7443 4.5005
R210 DVDD.n8092 DVDD.n7462 4.5005
R211 DVDD.n7453 DVDD.n7443 4.5005
R212 DVDD.n8092 DVDD.n7453 4.5005
R213 DVDD.n7464 DVDD.n7443 4.5005
R214 DVDD.n8092 DVDD.n7464 4.5005
R215 DVDD.n7452 DVDD.n7443 4.5005
R216 DVDD.n8092 DVDD.n7452 4.5005
R217 DVDD.n7466 DVDD.n7443 4.5005
R218 DVDD.n8092 DVDD.n7466 4.5005
R219 DVDD.n7451 DVDD.n7443 4.5005
R220 DVDD.n8092 DVDD.n7451 4.5005
R221 DVDD.n7468 DVDD.n7443 4.5005
R222 DVDD.n8092 DVDD.n7468 4.5005
R223 DVDD.n7450 DVDD.n7443 4.5005
R224 DVDD.n8092 DVDD.n7450 4.5005
R225 DVDD.n7470 DVDD.n7443 4.5005
R226 DVDD.n8092 DVDD.n7470 4.5005
R227 DVDD.n7449 DVDD.n7443 4.5005
R228 DVDD.n8092 DVDD.n7449 4.5005
R229 DVDD.n7472 DVDD.n7443 4.5005
R230 DVDD.n8092 DVDD.n7472 4.5005
R231 DVDD.n7448 DVDD.n7443 4.5005
R232 DVDD.n8092 DVDD.n7448 4.5005
R233 DVDD.n7474 DVDD.n7443 4.5005
R234 DVDD.n8092 DVDD.n7474 4.5005
R235 DVDD.n7447 DVDD.n7443 4.5005
R236 DVDD.n8092 DVDD.n7447 4.5005
R237 DVDD.n7476 DVDD.n7443 4.5005
R238 DVDD.n8092 DVDD.n7476 4.5005
R239 DVDD.n7446 DVDD.n7443 4.5005
R240 DVDD.n8092 DVDD.n7446 4.5005
R241 DVDD.n7478 DVDD.n7443 4.5005
R242 DVDD.n8092 DVDD.n7478 4.5005
R243 DVDD.n7445 DVDD.n7443 4.5005
R244 DVDD.n8092 DVDD.n7445 4.5005
R245 DVDD.n8091 DVDD.n7442 4.5005
R246 DVDD.n8091 DVDD.n7443 4.5005
R247 DVDD.n8092 DVDD.n8091 4.5005
R248 DVDD.n851 DVDD.n837 4.5005
R249 DVDD.n851 DVDD.n838 4.5005
R250 DVDD.n9105 DVDD.n851 4.5005
R251 DVDD.n854 DVDD.n838 4.5005
R252 DVDD.n9105 DVDD.n854 4.5005
R253 DVDD.n850 DVDD.n838 4.5005
R254 DVDD.n9105 DVDD.n850 4.5005
R255 DVDD.n856 DVDD.n838 4.5005
R256 DVDD.n9105 DVDD.n856 4.5005
R257 DVDD.n849 DVDD.n838 4.5005
R258 DVDD.n9105 DVDD.n849 4.5005
R259 DVDD.n858 DVDD.n838 4.5005
R260 DVDD.n9105 DVDD.n858 4.5005
R261 DVDD.n848 DVDD.n838 4.5005
R262 DVDD.n9105 DVDD.n848 4.5005
R263 DVDD.n860 DVDD.n838 4.5005
R264 DVDD.n9105 DVDD.n860 4.5005
R265 DVDD.n847 DVDD.n838 4.5005
R266 DVDD.n9105 DVDD.n847 4.5005
R267 DVDD.n862 DVDD.n838 4.5005
R268 DVDD.n9105 DVDD.n862 4.5005
R269 DVDD.n846 DVDD.n838 4.5005
R270 DVDD.n9105 DVDD.n846 4.5005
R271 DVDD.n864 DVDD.n838 4.5005
R272 DVDD.n9105 DVDD.n864 4.5005
R273 DVDD.n845 DVDD.n838 4.5005
R274 DVDD.n9105 DVDD.n845 4.5005
R275 DVDD.n866 DVDD.n838 4.5005
R276 DVDD.n9105 DVDD.n866 4.5005
R277 DVDD.n844 DVDD.n838 4.5005
R278 DVDD.n9105 DVDD.n844 4.5005
R279 DVDD.n868 DVDD.n838 4.5005
R280 DVDD.n9105 DVDD.n868 4.5005
R281 DVDD.n843 DVDD.n838 4.5005
R282 DVDD.n9105 DVDD.n843 4.5005
R283 DVDD.n870 DVDD.n838 4.5005
R284 DVDD.n9105 DVDD.n870 4.5005
R285 DVDD.n842 DVDD.n838 4.5005
R286 DVDD.n9105 DVDD.n842 4.5005
R287 DVDD.n872 DVDD.n838 4.5005
R288 DVDD.n9105 DVDD.n872 4.5005
R289 DVDD.n841 DVDD.n838 4.5005
R290 DVDD.n9105 DVDD.n841 4.5005
R291 DVDD.n9104 DVDD.n838 4.5005
R292 DVDD.n9105 DVDD.n9104 4.5005
R293 DVDD.n840 DVDD.n838 4.5005
R294 DVDD.n9105 DVDD.n840 4.5005
R295 DVDD.n9106 DVDD.n837 4.5005
R296 DVDD.n9106 DVDD.n838 4.5005
R297 DVDD.n9106 DVDD.n9105 4.5005
R298 DVDD.n3200 DVDD.n3199 4.5005
R299 DVDD.n3200 DVDD.n3119 4.5005
R300 DVDD.n3200 DVDD.n3118 4.5005
R301 DVDD.n3200 DVDD.n3117 4.5005
R302 DVDD.n3199 DVDD.n3134 4.5005
R303 DVDD.n3134 DVDD.n3119 4.5005
R304 DVDD.n3134 DVDD.n3118 4.5005
R305 DVDD.n3134 DVDD.n3117 4.5005
R306 DVDD.n3199 DVDD.n3165 4.5005
R307 DVDD.n3165 DVDD.n3119 4.5005
R308 DVDD.n3165 DVDD.n3118 4.5005
R309 DVDD.n3165 DVDD.n3117 4.5005
R310 DVDD.n3199 DVDD.n3133 4.5005
R311 DVDD.n3133 DVDD.n3119 4.5005
R312 DVDD.n3133 DVDD.n3117 4.5005
R313 DVDD.n3131 DVDD.n3119 4.5005
R314 DVDD.n3131 DVDD.n3117 4.5005
R315 DVDD.n3129 DVDD.n3119 4.5005
R316 DVDD.n3129 DVDD.n3117 4.5005
R317 DVDD.n3127 DVDD.n3119 4.5005
R318 DVDD.n3127 DVDD.n3117 4.5005
R319 DVDD.n3125 DVDD.n3119 4.5005
R320 DVDD.n3125 DVDD.n3117 4.5005
R321 DVDD.n3123 DVDD.n3119 4.5005
R322 DVDD.n3123 DVDD.n3117 4.5005
R323 DVDD.n3166 DVDD.n3119 4.5005
R324 DVDD.n3166 DVDD.n3118 4.5005
R325 DVDD.n3166 DVDD.n3117 4.5005
R326 DVDD.n3199 DVDD.n3198 4.5005
R327 DVDD.n3198 DVDD.n3119 4.5005
R328 DVDD.n3198 DVDD.n3118 4.5005
R329 DVDD.n3198 DVDD.n3117 4.5005
R330 DVDD.n3215 DVDD.n3063 4.5005
R331 DVDD.n3063 DVDD.n2942 4.5005
R332 DVDD.n3213 DVDD.n3063 4.5005
R333 DVDD.n3212 DVDD.n2942 4.5005
R334 DVDD.n3213 DVDD.n3212 4.5005
R335 DVDD.n3208 DVDD.n2942 4.5005
R336 DVDD.n3213 DVDD.n3208 4.5005
R337 DVDD.n3215 DVDD.n3065 4.5005
R338 DVDD.n3065 DVDD.n2942 4.5005
R339 DVDD.n3213 DVDD.n3065 4.5005
R340 DVDD.n3215 DVDD.n2952 4.5005
R341 DVDD.n2952 DVDD.n2942 4.5005
R342 DVDD.n3077 DVDD.n2952 4.5005
R343 DVDD.n3213 DVDD.n2952 4.5005
R344 DVDD.n3215 DVDD.n3066 4.5005
R345 DVDD.n3066 DVDD.n2942 4.5005
R346 DVDD.n3077 DVDD.n3066 4.5005
R347 DVDD.n3213 DVDD.n3066 4.5005
R348 DVDD.n3215 DVDD.n2951 4.5005
R349 DVDD.n2951 DVDD.n2942 4.5005
R350 DVDD.n3077 DVDD.n2951 4.5005
R351 DVDD.n3213 DVDD.n2951 4.5005
R352 DVDD.n3215 DVDD.n3067 4.5005
R353 DVDD.n3067 DVDD.n2942 4.5005
R354 DVDD.n3077 DVDD.n3067 4.5005
R355 DVDD.n3213 DVDD.n3067 4.5005
R356 DVDD.n3215 DVDD.n2950 4.5005
R357 DVDD.n2950 DVDD.n2942 4.5005
R358 DVDD.n3077 DVDD.n2950 4.5005
R359 DVDD.n3213 DVDD.n2950 4.5005
R360 DVDD.n3215 DVDD.n3068 4.5005
R361 DVDD.n3068 DVDD.n2942 4.5005
R362 DVDD.n3077 DVDD.n3068 4.5005
R363 DVDD.n3213 DVDD.n3068 4.5005
R364 DVDD.n3215 DVDD.n2949 4.5005
R365 DVDD.n2949 DVDD.n2942 4.5005
R366 DVDD.n3077 DVDD.n2949 4.5005
R367 DVDD.n3213 DVDD.n2949 4.5005
R368 DVDD.n3215 DVDD.n3069 4.5005
R369 DVDD.n3069 DVDD.n2942 4.5005
R370 DVDD.n3077 DVDD.n3069 4.5005
R371 DVDD.n3213 DVDD.n3069 4.5005
R372 DVDD.n3215 DVDD.n2948 4.5005
R373 DVDD.n2948 DVDD.n2942 4.5005
R374 DVDD.n3077 DVDD.n2948 4.5005
R375 DVDD.n3213 DVDD.n2948 4.5005
R376 DVDD.n3215 DVDD.n3070 4.5005
R377 DVDD.n3070 DVDD.n2942 4.5005
R378 DVDD.n3077 DVDD.n3070 4.5005
R379 DVDD.n3213 DVDD.n3070 4.5005
R380 DVDD.n3215 DVDD.n2947 4.5005
R381 DVDD.n2947 DVDD.n2942 4.5005
R382 DVDD.n3077 DVDD.n2947 4.5005
R383 DVDD.n3213 DVDD.n2947 4.5005
R384 DVDD.n3215 DVDD.n3071 4.5005
R385 DVDD.n3071 DVDD.n2942 4.5005
R386 DVDD.n3077 DVDD.n3071 4.5005
R387 DVDD.n3213 DVDD.n3071 4.5005
R388 DVDD.n3215 DVDD.n2946 4.5005
R389 DVDD.n2946 DVDD.n2942 4.5005
R390 DVDD.n3077 DVDD.n2946 4.5005
R391 DVDD.n3213 DVDD.n2946 4.5005
R392 DVDD.n3215 DVDD.n3072 4.5005
R393 DVDD.n3072 DVDD.n2942 4.5005
R394 DVDD.n3077 DVDD.n3072 4.5005
R395 DVDD.n3213 DVDD.n3072 4.5005
R396 DVDD.n3215 DVDD.n2945 4.5005
R397 DVDD.n2945 DVDD.n2942 4.5005
R398 DVDD.n3077 DVDD.n2945 4.5005
R399 DVDD.n3213 DVDD.n2945 4.5005
R400 DVDD.n3215 DVDD.n3073 4.5005
R401 DVDD.n3073 DVDD.n2942 4.5005
R402 DVDD.n3077 DVDD.n3073 4.5005
R403 DVDD.n3213 DVDD.n3073 4.5005
R404 DVDD.n3215 DVDD.n2944 4.5005
R405 DVDD.n2944 DVDD.n2942 4.5005
R406 DVDD.n3077 DVDD.n2944 4.5005
R407 DVDD.n3213 DVDD.n2944 4.5005
R408 DVDD.n3215 DVDD.n3074 4.5005
R409 DVDD.n3074 DVDD.n2942 4.5005
R410 DVDD.n3077 DVDD.n3074 4.5005
R411 DVDD.n3213 DVDD.n3074 4.5005
R412 DVDD.n3215 DVDD.n2943 4.5005
R413 DVDD.n2943 DVDD.n2942 4.5005
R414 DVDD.n3077 DVDD.n2943 4.5005
R415 DVDD.n3213 DVDD.n2943 4.5005
R416 DVDD.n3215 DVDD.n3214 4.5005
R417 DVDD.n3214 DVDD.n2942 4.5005
R418 DVDD.n3214 DVDD.n3077 4.5005
R419 DVDD.n3214 DVDD.n3213 4.5005
R420 DVDD.n8760 DVDD.n8759 4.5005
R421 DVDD.n8758 DVDD.n8757 4.5005
R422 DVDD.n8756 DVDD.n8755 4.5005
R423 DVDD.n8754 DVDD.n8753 4.5005
R424 DVDD.n8752 DVDD.n8751 4.5005
R425 DVDD.n8750 DVDD.n8749 4.5005
R426 DVDD.n8748 DVDD.n8747 4.5005
R427 DVDD.n8746 DVDD.n8745 4.5005
R428 DVDD.n8744 DVDD.n1922 4.5005
R429 DVDD.n8743 DVDD.n1925 4.5005
R430 DVDD.n8742 DVDD.n8741 4.5005
R431 DVDD.n8740 DVDD.n1950 4.5005
R432 DVDD.n1975 DVDD.n1953 4.5005
R433 DVDD.n1977 DVDD.n1976 4.5005
R434 DVDD.n1979 DVDD.n1978 4.5005
R435 DVDD.n1981 DVDD.n1980 4.5005
R436 DVDD.n1983 DVDD.n1982 4.5005
R437 DVDD.n1985 DVDD.n1984 4.5005
R438 DVDD.n1987 DVDD.n1986 4.5005
R439 DVDD.n1989 DVDD.n1988 4.5005
R440 DVDD.n1991 DVDD.n1990 4.5005
R441 DVDD.n1993 DVDD.n1992 4.5005
R442 DVDD.n1995 DVDD.n1994 4.5005
R443 DVDD.n1997 DVDD.n1996 4.5005
R444 DVDD.n1999 DVDD.n1998 4.5005
R445 DVDD.n2001 DVDD.n2000 4.5005
R446 DVDD.n2003 DVDD.n2002 4.5005
R447 DVDD.n2005 DVDD.n2004 4.5005
R448 DVDD.n2035 DVDD.n2034 4.5005
R449 DVDD.n3709 DVDD.n3698 4.5005
R450 DVDD.n3781 DVDD.n3780 4.5005
R451 DVDD.n3779 DVDD.n3708 4.5005
R452 DVDD.n3778 DVDD.n3777 4.5005
R453 DVDD.n3776 DVDD.n3710 4.5005
R454 DVDD.n3775 DVDD.n3774 4.5005
R455 DVDD.n3773 DVDD.n3711 4.5005
R456 DVDD.n3772 DVDD.n3771 4.5005
R457 DVDD.n3770 DVDD.n3712 4.5005
R458 DVDD.n3769 DVDD.n3768 4.5005
R459 DVDD.n3767 DVDD.n3713 4.5005
R460 DVDD.n3766 DVDD.n3765 4.5005
R461 DVDD.n3764 DVDD.n3714 4.5005
R462 DVDD.n3763 DVDD.n3762 4.5005
R463 DVDD.n3761 DVDD.n3715 4.5005
R464 DVDD.n3760 DVDD.n3759 4.5005
R465 DVDD.n3758 DVDD.n3716 4.5005
R466 DVDD.n3757 DVDD.n3756 4.5005
R467 DVDD.n3755 DVDD.n3717 4.5005
R468 DVDD.n3754 DVDD.n3753 4.5005
R469 DVDD.n3752 DVDD.n3751 4.5005
R470 DVDD.n3750 DVDD.n3749 4.5005
R471 DVDD.n3748 DVDD.n3747 4.5005
R472 DVDD.n3746 DVDD.n3745 4.5005
R473 DVDD.n3744 DVDD.n3743 4.5005
R474 DVDD.n3742 DVDD.n3741 4.5005
R475 DVDD.n3740 DVDD.n3739 4.5005
R476 DVDD.n3738 DVDD.n3737 4.5005
R477 DVDD.n3736 DVDD.n3735 4.5005
R478 DVDD.n3620 DVDD.n3619 4.5005
R479 DVDD.n3622 DVDD.n3621 4.5005
R480 DVDD.n3624 DVDD.n3623 4.5005
R481 DVDD.n3626 DVDD.n3625 4.5005
R482 DVDD.n3628 DVDD.n3627 4.5005
R483 DVDD.n3630 DVDD.n3629 4.5005
R484 DVDD.n3632 DVDD.n3631 4.5005
R485 DVDD.n3634 DVDD.n3633 4.5005
R486 DVDD.n3636 DVDD.n3635 4.5005
R487 DVDD.n3638 DVDD.n3637 4.5005
R488 DVDD.n3640 DVDD.n3639 4.5005
R489 DVDD.n3642 DVDD.n3641 4.5005
R490 DVDD.n3644 DVDD.n3643 4.5005
R491 DVDD.n3646 DVDD.n3645 4.5005
R492 DVDD.n3648 DVDD.n3647 4.5005
R493 DVDD.n3650 DVDD.n3649 4.5005
R494 DVDD.n3652 DVDD.n3651 4.5005
R495 DVDD.n3654 DVDD.n3653 4.5005
R496 DVDD.n3656 DVDD.n3655 4.5005
R497 DVDD.n3658 DVDD.n3657 4.5005
R498 DVDD.n3660 DVDD.n3659 4.5005
R499 DVDD.n3662 DVDD.n3661 4.5005
R500 DVDD.n3663 DVDD.n304 4.5005
R501 DVDD.n3664 DVDD.n306 4.5005
R502 DVDD.n3666 DVDD.n3665 4.5005
R503 DVDD.n3668 DVDD.n3667 4.5005
R504 DVDD.n3670 DVDD.n3669 4.5005
R505 DVDD.n3672 DVDD.n3671 4.5005
R506 DVDD.n3679 DVDD.n3678 4.5005
R507 DVDD.n4650 DVDD.n4649 4.5005
R508 DVDD.n4651 DVDD.n4648 4.5005
R509 DVDD.n4653 DVDD.n4652 4.5005
R510 DVDD.n4654 DVDD.n4647 4.5005
R511 DVDD.n4656 DVDD.n4655 4.5005
R512 DVDD.n4657 DVDD.n4646 4.5005
R513 DVDD.n4659 DVDD.n4658 4.5005
R514 DVDD.n4660 DVDD.n4645 4.5005
R515 DVDD.n4662 DVDD.n4661 4.5005
R516 DVDD.n4663 DVDD.n4644 4.5005
R517 DVDD.n4665 DVDD.n4664 4.5005
R518 DVDD.n4666 DVDD.n4643 4.5005
R519 DVDD.n4668 DVDD.n4667 4.5005
R520 DVDD.n4669 DVDD.n4642 4.5005
R521 DVDD.n4671 DVDD.n4670 4.5005
R522 DVDD.n4672 DVDD.n4641 4.5005
R523 DVDD.n4674 DVDD.n4673 4.5005
R524 DVDD.n4675 DVDD.n4640 4.5005
R525 DVDD.n4677 DVDD.n4676 4.5005
R526 DVDD.n4678 DVDD.n4639 4.5005
R527 DVDD.n4680 DVDD.n4679 4.5005
R528 DVDD.n4681 DVDD.n4638 4.5005
R529 DVDD.n4683 DVDD.n4682 4.5005
R530 DVDD.n4684 DVDD.n4637 4.5005
R531 DVDD.n4686 DVDD.n4685 4.5005
R532 DVDD.n4687 DVDD.n4636 4.5005
R533 DVDD.n4689 DVDD.n4688 4.5005
R534 DVDD.n4690 DVDD.n4635 4.5005
R535 DVDD.n4692 DVDD.n4691 4.5005
R536 DVDD.n4564 DVDD.n4529 4.5005
R537 DVDD.n4565 DVDD.n4534 4.5005
R538 DVDD.n4566 DVDD.n4535 4.5005
R539 DVDD.n4572 DVDD.n4571 4.5005
R540 DVDD.n4573 DVDD.n4542 4.5005
R541 DVDD.n4574 DVDD.n4543 4.5005
R542 DVDD.n4575 DVDD.n4562 4.5005
R543 DVDD.n4766 DVDD.n4765 4.5005
R544 DVDD.n4764 DVDD.n4563 4.5005
R545 DVDD.n4763 DVDD.n4762 4.5005
R546 DVDD.n4761 DVDD.n4576 4.5005
R547 DVDD.n4760 DVDD.n4759 4.5005
R548 DVDD.n4758 DVDD.n4577 4.5005
R549 DVDD.n4757 DVDD.n4756 4.5005
R550 DVDD.n4755 DVDD.n4578 4.5005
R551 DVDD.n4754 DVDD.n4753 4.5005
R552 DVDD.n4752 DVDD.n4579 4.5005
R553 DVDD.n4751 DVDD.n4750 4.5005
R554 DVDD.n4749 DVDD.n4580 4.5005
R555 DVDD.n4748 DVDD.n4747 4.5005
R556 DVDD.n4746 DVDD.n4581 4.5005
R557 DVDD.n4745 DVDD.n4744 4.5005
R558 DVDD.n4743 DVDD.n4582 4.5005
R559 DVDD.n4742 DVDD.n4741 4.5005
R560 DVDD.n4740 DVDD.n4583 4.5005
R561 DVDD.n4739 DVDD.n4738 4.5005
R562 DVDD.n4737 DVDD.n4584 4.5005
R563 DVDD.n4736 DVDD.n4735 4.5005
R564 DVDD.n4734 DVDD.n4585 4.5005
R565 DVDD.n4944 DVDD.n4822 4.5005
R566 DVDD.n4349 DVDD.n4346 4.5005
R567 DVDD.n6778 DVDD.n6777 4.5005
R568 DVDD.n6776 DVDD.n6775 4.5005
R569 DVDD.n6774 DVDD.n4350 4.5005
R570 DVDD.n4372 DVDD.n4351 4.5005
R571 DVDD.n4373 DVDD.n4370 4.5005
R572 DVDD.n6746 DVDD.n6745 4.5005
R573 DVDD.n6744 DVDD.n6743 4.5005
R574 DVDD.n4375 DVDD.n4374 4.5005
R575 DVDD.n6720 DVDD.n6719 4.5005
R576 DVDD.n6718 DVDD.n4391 4.5005
R577 DVDD.n6717 DVDD.n4392 4.5005
R578 DVDD.n6716 DVDD.n6715 4.5005
R579 DVDD.n4400 DVDD.n4398 4.5005
R580 DVDD.n4418 DVDD.n4417 4.5005
R581 DVDD.n4419 DVDD.n4414 4.5005
R582 DVDD.n6703 DVDD.n6702 4.5005
R583 DVDD.n6701 DVDD.n6700 4.5005
R584 DVDD.n4421 DVDD.n4420 4.5005
R585 DVDD.n6673 DVDD.n6672 4.5005
R586 DVDD.n6671 DVDD.n4453 4.5005
R587 DVDD.n6670 DVDD.n4454 4.5005
R588 DVDD.n6669 DVDD.n6668 4.5005
R589 DVDD.n4456 DVDD.n4455 4.5005
R590 DVDD.n4473 DVDD.n4468 4.5005
R591 DVDD.n4474 DVDD.n4469 4.5005
R592 DVDD.n6654 DVDD.n6653 4.5005
R593 DVDD.n6652 DVDD.n4472 4.5005
R594 DVDD.n4992 DVDD.n4830 4.5005
R595 DVDD.n4991 DVDD.n4990 4.5005
R596 DVDD.n4989 DVDD.n4938 4.5005
R597 DVDD.n4988 DVDD.n4987 4.5005
R598 DVDD.n4986 DVDD.n4939 4.5005
R599 DVDD.n4985 DVDD.n4984 4.5005
R600 DVDD.n4983 DVDD.n4940 4.5005
R601 DVDD.n4982 DVDD.n4981 4.5005
R602 DVDD.n4980 DVDD.n4979 4.5005
R603 DVDD.n4978 DVDD.n4977 4.5005
R604 DVDD.n4976 DVDD.n4975 4.5005
R605 DVDD.n4974 DVDD.n4973 4.5005
R606 DVDD.n4972 DVDD.n4971 4.5005
R607 DVDD.n4970 DVDD.n4969 4.5005
R608 DVDD.n4968 DVDD.n4967 4.5005
R609 DVDD.n4966 DVDD.n4965 4.5005
R610 DVDD.n4964 DVDD.n4963 4.5005
R611 DVDD.n4962 DVDD.n4961 4.5005
R612 DVDD.n4960 DVDD.n4959 4.5005
R613 DVDD.n4958 DVDD.n4957 4.5005
R614 DVDD.n4956 DVDD.n4301 4.5005
R615 DVDD.n4955 DVDD.n4303 4.5005
R616 DVDD.n4954 DVDD.n4953 4.5005
R617 DVDD.n4952 DVDD.n4941 4.5005
R618 DVDD.n4951 DVDD.n4950 4.5005
R619 DVDD.n4949 DVDD.n4942 4.5005
R620 DVDD.n4948 DVDD.n4947 4.5005
R621 DVDD.n4946 DVDD.n4943 4.5005
R622 DVDD.n4945 DVDD.n4829 4.5005
R623 DVDD.n5035 DVDD.n4835 4.5005
R624 DVDD.n5034 DVDD.n5033 4.5005
R625 DVDD.n5032 DVDD.n4925 4.5005
R626 DVDD.n5031 DVDD.n5030 4.5005
R627 DVDD.n5029 DVDD.n4926 4.5005
R628 DVDD.n5028 DVDD.n5027 4.5005
R629 DVDD.n5026 DVDD.n4927 4.5005
R630 DVDD.n5025 DVDD.n5024 4.5005
R631 DVDD.n5023 DVDD.n4928 4.5005
R632 DVDD.n5022 DVDD.n5021 4.5005
R633 DVDD.n5020 DVDD.n4929 4.5005
R634 DVDD.n5019 DVDD.n5018 4.5005
R635 DVDD.n5017 DVDD.n4930 4.5005
R636 DVDD.n5016 DVDD.n5015 4.5005
R637 DVDD.n5014 DVDD.n4931 4.5005
R638 DVDD.n5013 DVDD.n5012 4.5005
R639 DVDD.n5011 DVDD.n4932 4.5005
R640 DVDD.n5010 DVDD.n5009 4.5005
R641 DVDD.n5008 DVDD.n4933 4.5005
R642 DVDD.n5007 DVDD.n5006 4.5005
R643 DVDD.n5005 DVDD.n4934 4.5005
R644 DVDD.n5004 DVDD.n5003 4.5005
R645 DVDD.n5002 DVDD.n4935 4.5005
R646 DVDD.n5001 DVDD.n5000 4.5005
R647 DVDD.n4999 DVDD.n4936 4.5005
R648 DVDD.n4998 DVDD.n4997 4.5005
R649 DVDD.n4996 DVDD.n4937 4.5005
R650 DVDD.n4995 DVDD.n4994 4.5005
R651 DVDD.n4993 DVDD.n4834 4.5005
R652 DVDD.n4900 DVDD.n4899 4.5005
R653 DVDD.n4902 DVDD.n4901 4.5005
R654 DVDD.n4904 DVDD.n4903 4.5005
R655 DVDD.n4906 DVDD.n4905 4.5005
R656 DVDD.n4908 DVDD.n4907 4.5005
R657 DVDD.n4910 DVDD.n4909 4.5005
R658 DVDD.n4912 DVDD.n4911 4.5005
R659 DVDD.n4914 DVDD.n4913 4.5005
R660 DVDD.n4916 DVDD.n4915 4.5005
R661 DVDD.n4918 DVDD.n4917 4.5005
R662 DVDD.n4920 DVDD.n4919 4.5005
R663 DVDD.n305 DVDD.n292 4.5005
R664 DVDD.n9496 DVDD.n292 4.5005
R665 DVDD.n292 DVDD.n280 4.5005
R666 DVDD.n310 DVDD.n305 4.5005
R667 DVDD.n310 DVDD.n280 4.5005
R668 DVDD.n308 DVDD.n305 4.5005
R669 DVDD.n308 DVDD.n280 4.5005
R670 DVDD.n305 DVDD.n294 4.5005
R671 DVDD.n9496 DVDD.n294 4.5005
R672 DVDD.n294 DVDD.n280 4.5005
R673 DVDD.n305 DVDD.n290 4.5005
R674 DVDD.n9496 DVDD.n290 4.5005
R675 DVDD.n290 DVDD.n280 4.5005
R676 DVDD.n9494 DVDD.n290 4.5005
R677 DVDD.n9494 DVDD.n295 4.5005
R678 DVDD.n305 DVDD.n295 4.5005
R679 DVDD.n9496 DVDD.n295 4.5005
R680 DVDD.n295 DVDD.n280 4.5005
R681 DVDD.n9494 DVDD.n289 4.5005
R682 DVDD.n305 DVDD.n289 4.5005
R683 DVDD.n9496 DVDD.n289 4.5005
R684 DVDD.n289 DVDD.n280 4.5005
R685 DVDD.n9494 DVDD.n296 4.5005
R686 DVDD.n305 DVDD.n296 4.5005
R687 DVDD.n9496 DVDD.n296 4.5005
R688 DVDD.n296 DVDD.n280 4.5005
R689 DVDD.n9494 DVDD.n288 4.5005
R690 DVDD.n305 DVDD.n288 4.5005
R691 DVDD.n9496 DVDD.n288 4.5005
R692 DVDD.n288 DVDD.n280 4.5005
R693 DVDD.n305 DVDD.n297 4.5005
R694 DVDD.n9496 DVDD.n297 4.5005
R695 DVDD.n297 DVDD.n280 4.5005
R696 DVDD.n9494 DVDD.n297 4.5005
R697 DVDD.n305 DVDD.n287 4.5005
R698 DVDD.n9496 DVDD.n287 4.5005
R699 DVDD.n287 DVDD.n280 4.5005
R700 DVDD.n9494 DVDD.n287 4.5005
R701 DVDD.n305 DVDD.n298 4.5005
R702 DVDD.n9496 DVDD.n298 4.5005
R703 DVDD.n298 DVDD.n280 4.5005
R704 DVDD.n9494 DVDD.n298 4.5005
R705 DVDD.n9494 DVDD.n286 4.5005
R706 DVDD.n305 DVDD.n286 4.5005
R707 DVDD.n9496 DVDD.n286 4.5005
R708 DVDD.n286 DVDD.n280 4.5005
R709 DVDD.n9494 DVDD.n299 4.5005
R710 DVDD.n305 DVDD.n299 4.5005
R711 DVDD.n9496 DVDD.n299 4.5005
R712 DVDD.n299 DVDD.n280 4.5005
R713 DVDD.n9494 DVDD.n285 4.5005
R714 DVDD.n305 DVDD.n285 4.5005
R715 DVDD.n9496 DVDD.n285 4.5005
R716 DVDD.n285 DVDD.n280 4.5005
R717 DVDD.n305 DVDD.n300 4.5005
R718 DVDD.n9496 DVDD.n300 4.5005
R719 DVDD.n300 DVDD.n280 4.5005
R720 DVDD.n9494 DVDD.n300 4.5005
R721 DVDD.n305 DVDD.n284 4.5005
R722 DVDD.n9496 DVDD.n284 4.5005
R723 DVDD.n284 DVDD.n280 4.5005
R724 DVDD.n9494 DVDD.n284 4.5005
R725 DVDD.n305 DVDD.n301 4.5005
R726 DVDD.n9496 DVDD.n301 4.5005
R727 DVDD.n301 DVDD.n280 4.5005
R728 DVDD.n9494 DVDD.n301 4.5005
R729 DVDD.n305 DVDD.n283 4.5005
R730 DVDD.n9496 DVDD.n283 4.5005
R731 DVDD.n283 DVDD.n280 4.5005
R732 DVDD.n9494 DVDD.n283 4.5005
R733 DVDD.n9494 DVDD.n302 4.5005
R734 DVDD.n305 DVDD.n302 4.5005
R735 DVDD.n9496 DVDD.n302 4.5005
R736 DVDD.n302 DVDD.n280 4.5005
R737 DVDD.n9494 DVDD.n282 4.5005
R738 DVDD.n305 DVDD.n282 4.5005
R739 DVDD.n9496 DVDD.n282 4.5005
R740 DVDD.n282 DVDD.n280 4.5005
R741 DVDD.n9494 DVDD.n303 4.5005
R742 DVDD.n305 DVDD.n303 4.5005
R743 DVDD.n9496 DVDD.n303 4.5005
R744 DVDD.n303 DVDD.n280 4.5005
R745 DVDD.n305 DVDD.n281 4.5005
R746 DVDD.n9496 DVDD.n281 4.5005
R747 DVDD.n281 DVDD.n280 4.5005
R748 DVDD.n9494 DVDD.n281 4.5005
R749 DVDD.n9495 DVDD.n305 4.5005
R750 DVDD.n9496 DVDD.n9495 4.5005
R751 DVDD.n9495 DVDD.n280 4.5005
R752 DVDD.n9495 DVDD.n9494 4.5005
R753 DVDD.n3783 DVDD.n3615 4.5005
R754 DVDD.n3615 DVDD.n3493 4.5005
R755 DVDD.n3783 DVDD.n3496 4.5005
R756 DVDD.n3496 DVDD.n3493 4.5005
R757 DVDD.n3783 DVDD.n3616 4.5005
R758 DVDD.n3616 DVDD.n3493 4.5005
R759 DVDD.n3696 DVDD.n3493 4.5005
R760 DVDD.n3783 DVDD.n3495 4.5005
R761 DVDD.n3782 DVDD.n3493 4.5005
R762 DVDD.n3783 DVDD.n3782 4.5005
R763 DVDD.n8764 DVDD.n1910 4.5005
R764 DVDD.n1924 DVDD.n1910 4.5005
R765 DVDD.n8762 DVDD.n1910 4.5005
R766 DVDD.n1923 DVDD.n1910 4.5005
R767 DVDD.n8764 DVDD.n1911 4.5005
R768 DVDD.n1924 DVDD.n1911 4.5005
R769 DVDD.n8762 DVDD.n1911 4.5005
R770 DVDD.n1923 DVDD.n1911 4.5005
R771 DVDD.n8764 DVDD.n1909 4.5005
R772 DVDD.n1924 DVDD.n1909 4.5005
R773 DVDD.n8762 DVDD.n1909 4.5005
R774 DVDD.n1923 DVDD.n1909 4.5005
R775 DVDD.n8764 DVDD.n1912 4.5005
R776 DVDD.n1924 DVDD.n1912 4.5005
R777 DVDD.n8762 DVDD.n1912 4.5005
R778 DVDD.n1923 DVDD.n1912 4.5005
R779 DVDD.n1924 DVDD.n1908 4.5005
R780 DVDD.n8762 DVDD.n1908 4.5005
R781 DVDD.n1923 DVDD.n1908 4.5005
R782 DVDD.n8764 DVDD.n1908 4.5005
R783 DVDD.n1924 DVDD.n1913 4.5005
R784 DVDD.n8762 DVDD.n1913 4.5005
R785 DVDD.n1923 DVDD.n1913 4.5005
R786 DVDD.n8764 DVDD.n1913 4.5005
R787 DVDD.n1924 DVDD.n1907 4.5005
R788 DVDD.n8762 DVDD.n1907 4.5005
R789 DVDD.n1923 DVDD.n1907 4.5005
R790 DVDD.n8764 DVDD.n1907 4.5005
R791 DVDD.n8764 DVDD.n1914 4.5005
R792 DVDD.n1924 DVDD.n1914 4.5005
R793 DVDD.n8762 DVDD.n1914 4.5005
R794 DVDD.n1923 DVDD.n1914 4.5005
R795 DVDD.n8764 DVDD.n1906 4.5005
R796 DVDD.n1924 DVDD.n1906 4.5005
R797 DVDD.n8762 DVDD.n1906 4.5005
R798 DVDD.n1923 DVDD.n1906 4.5005
R799 DVDD.n8764 DVDD.n1915 4.5005
R800 DVDD.n1924 DVDD.n1915 4.5005
R801 DVDD.n1923 DVDD.n1915 4.5005
R802 DVDD.n1933 DVDD.n1924 4.5005