* NGSPICE file created from gf180mcu_fd_io__asig_5p0_gab.ext - technology: gf180mcuC

.subckt gf180mcu_fd_io__asig_5p0_gab VSS VDD ASIG5V DVSS DVDD
X0 DVDD.t1 DVSS.t36 cap_nmos_06v0 c_width=15u c_length=15u
X1 DVDD.t2 DVSS.t35 cap_nmos_06v0 c_width=15u c_length=15u
X2 DVDD.t3 DVSS.t34 cap_nmos_06v0 c_width=15u c_length=15u
X3 DVDD.t4 DVSS.t33 cap_nmos_06v0 c_width=15u c_length=15u
X4 DVDD.t5 DVSS.t32 cap_nmos_06v0 c_width=15u c_length=15u
D0 DVSS.t3 DVDD.t6 diode_nd2ps_06v0 pj=82u area=40p
X5 DVDD.t7 DVSS.t31 cap_nmos_06v0 c_width=15u c_length=15u
X6 DVDD.t8 DVSS.t30 cap_nmos_06v0 c_width=15u c_length=15u
X7 DVDD.t9 DVSS.t29 cap_nmos_06v0 c_width=15u c_length=15u
X8 DVDD.t10 DVSS.t28 cap_nmos_06v0 c_width=15u c_length=15u
X9 DVDD.t11 DVSS.t27 cap_nmos_06v0 c_width=15u c_length=15u
X10 DVDD.t12 DVSS.t26 cap_nmos_06v0 c_width=15u c_length=15u
X11 DVDD.t13 DVSS.t25 cap_nmos_06v0 c_width=15u c_length=15u
X12 DVDD.t14 DVSS.t24 cap_nmos_06v0 c_width=15u c_length=15u
X13 DVDD.t15 DVSS.t23 cap_nmos_06v0 c_width=15u c_length=15u
X14 DVDD.t16 DVSS.t22 cap_nmos_06v0 c_width=15u c_length=15u
D1 DVSS.t37 ASIG5V.t0 diode_nd2ps_06v0 pj=0.106m area=0.15n
X15 DVDD.t17 DVSS.t21 cap_nmos_06v0 c_width=15u c_length=15u
X16 DVDD.t18 DVSS.t20 cap_nmos_06v0 c_width=15u c_length=15u
X17 DVDD.t19 DVSS.t19 cap_nmos_06v0 c_width=15u c_length=15u
D2 DVSS.t37 ASIG5V.t1 diode_nd2ps_06v0 pj=0.106m area=0.15n
D3 ASIG5V.t2 DVDD.t0 diode_pd2nw_06v0 pj=0.106m area=0.15n
X18 DVDD.t20 DVSS.t18 cap_nmos_06v0 c_width=15u c_length=15u
X19 DVDD.t21 DVSS.t17 cap_nmos_06v0 c_width=15u c_length=15u
D4 ASIG5V.t3 DVDD.t0 diode_pd2nw_06v0 pj=0.106m area=0.15n
D5 DVSS.t37 ASIG5V.t4 diode_nd2ps_06v0 pj=0.106m area=0.15n
X20 DVDD.t22 DVSS.t16 cap_nmos_06v0 c_width=15u c_length=15u
D6 ASIG5V.t5 DVDD.t0 diode_pd2nw_06v0 pj=0.106m area=0.15n
X21 DVDD.t23 DVSS.t15 cap_nmos_06v0 c_width=15u c_length=15u
X22 DVDD.t24 DVSS.t14 cap_nmos_06v0 c_width=15u c_length=15u
D7 DVSS.t3 DVDD.t25 diode_nd2ps_06v0 pj=82u area=40p
X23 DVDD.t26 DVSS.t13 cap_nmos_06v0 c_width=15u c_length=15u
X24 DVDD.t27 DVSS.t12 cap_nmos_06v0 c_width=15u c_length=15u
X25 DVDD.t28 DVSS.t11 cap_nmos_06v0 c_width=15u c_length=15u
X26 DVDD.t29 DVSS.t10 cap_nmos_06v0 c_width=15u c_length=15u
X27 DVDD.t30 DVSS.t9 cap_nmos_06v0 c_width=15u c_length=15u
D8 DVSS.t3 DVDD.t31 diode_nd2ps_06v0 pj=82u area=40p
X28 DVDD.t32 DVSS.t8 cap_nmos_06v0 c_width=15u c_length=15u
D9 DVSS.t37 ASIG5V.t6 diode_nd2ps_06v0 pj=0.106m area=0.15n
X29 DVDD.t33 DVSS.t7 cap_nmos_06v0 c_width=15u c_length=15u
X30 DVDD.t34 DVSS.t6 cap_nmos_06v0 c_width=15u c_length=15u
X31 DVDD.t35 DVSS.t5 cap_nmos_06v0 c_width=15u c_length=15u
X32 DVDD.t36 DVSS.t4 cap_nmos_06v0 c_width=15u c_length=15u
D10 DVSS.t3 DVDD.t37 diode_nd2ps_06v0 pj=82u area=40p
D11 ASIG5V.t7 DVDD.t0 diode_pd2nw_06v0 pj=0.106m area=0.15n
X33 DVDD.t38 DVSS.t2 cap_nmos_06v0 c_width=15u c_length=15u
X34 DVDD.t39 DVSS.t1 cap_nmos_06v0 c_width=15u c_length=15u
X35 DVDD.t40 DVSS.t0 cap_nmos_06v0 c_width=15u c_length=15u
R0 DVDD.n2024 DVDD.n2023 47.4925
R1 DVDD.n2055 DVDD.n2054 47.4925
R2 DVDD.n2156 DVDD.n2155 47.4925
R3 DVDD.n2209 DVDD.n2208 47.4925
R4 DVDD.n2232 DVDD.n2231 47.4925
R5 DVDD.n18931 DVDD.n18930 47.4925
R6 DVDD.n7100 DVDD.n7099 47.4925
R7 DVDD.n7033 DVDD.n7032 47.4925
R8 DVDD.n6938 DVDD.n6937 47.4925
R9 DVDD.n6943 DVDD.n6942 47.4925
R10 DVDD.n6786 DVDD.n6785 47.4925
R11 DVDD.n6802 DVDD.n6801 47.4925
R12 DVDD.n6520 DVDD.n6519 47.4925
R13 DVDD.n6553 DVDD.n6552 47.4925
R14 DVDD.n1859 DVDD.n1858 47.4925
R15 DVDD.n1862 DVDD.n1861 47.4925
R16 DVDD.n3925 DVDD.n3924 47.4925
R17 DVDD.n3930 DVDD.n3929 47.4925
R18 DVDD.n19833 DVDD.n19832 47.4925
R19 DVDD.n19802 DVDD.n19801 47.4925
R20 DVDD.n19988 DVDD.n19987 47.4925
R21 DVDD.n19935 DVDD.n19934 47.4925
R22 DVDD.n19049 DVDD.n19048 47.4925
R23 DVDD.n20011 DVDD.n20010 47.4925
R24 DVDD.n4613 DVDD.n4612 47.4925
R25 DVDD.n3879 DVDD.n3878 47.4925
R26 DVDD.n4717 DVDD.n4716 47.4925
R27 DVDD.n4712 DVDD.n4711 47.4925
R28 DVDD.n4839 DVDD.n4838 47.4925
R29 DVDD.n4823 DVDD.n4822 47.4925
R30 DVDD.n5144 DVDD.n5143 47.4925
R31 DVDD.n5111 DVDD.n5110 47.4925
R32 DVDD.n19640 DVDD.n19639 47.4925
R33 DVDD.n19637 DVDD.n19636 47.4925
R34 DVDD.n5235 DVDD.n5234 47.4925
R35 DVDD.n5230 DVDD.n5229 47.4925
R36 DVDD.n7742 DVDD.n7741 8.0005
R37 DVDD.n7744 DVDD.n7743 8.0005
R38 DVDD.n18282 DVDD.n18281 8.0005
R39 DVDD.n18284 DVDD.n18283 8.0005
R40 DVDD.n17172 DVDD.n17171 6.3005
R41 DVDD.n11203 DVDD.n11202 6.3005
R42 DVDD.n12916 DVDD.n12874 6.3005
R43 DVDD.n9023 DVDD.n8981 6.3005
R44 DVDD.n17290 DVDD.n17289 6.3005
R45 DVDD.n17288 DVDD.n17287 6.3005
R46 DVDD.n13905 DVDD.n13904 6.3005
R47 DVDD.n13907 DVDD.n13906 6.3005
R48 DVDD.n17585 DVDD.n17584 6.3005
R49 DVDD.n14206 DVDD.n14205 6.3005
R50 DVDD.n17666 DVDD.n17665 6.3005
R51 DVDD.n14293 DVDD.n14292 6.3005
R52 DVDD.n14296 DVDD.n14295 6.3005
R53 DVDD.n14295 DVDD.n14294 6.3005
R54 DVDD.n17669 DVDD.n17668 6.3005
R55 DVDD.n17668 DVDD.n17667 6.3005
R56 DVDD.n13911 DVDD.n13910 4.5005
R57 DVDD.n17294 DVDD.n17293 4.5005
R58 DVDD.n17673 DVDD.n17672 4.5005
R59 DVDD.n14300 DVDD.n14299 4.5005
R60 DVDD.n7766 DVDD 4.0005
R61 DVDD.n18285 DVDD 4.0005
R62 DVDD.n9815 DVDD.n9814 3.81094
R63 DVDD.n1545 DVDD.n1544 3.81094
R64 DVDD.n1674 DVDD.n959 3.81094
R65 DVDD.n11541 DVDD.n11418 3.81094
R66 DVDD.n9958 DVDD.n9957 3.81094
R67 DVDD.n3320 DVDD.n3319 3.81094
R68 DVDD.n1283 DVDD.n1121 3.81094
R69 DVDD.n11916 DVDD.n11915 3.81094
R70 DVDD.n12323 DVDD.n11306 3.81094
R71 DVDD.n7162 DVDD.n7161 3.81094
R72 DVDD.n18287 DVDD.n18286 3.81094
R73 DVDD.n3157 DVDD.n3031 3.81094
R74 DVDD.n9519 DVDD.n9518 3.81094
R75 DVDD.n1012 DVDD.n1011 3.81093
R76 DVDD.n1733 DVDD.n1732 3.81093
R77 DVDD.n1089 DVDD.n1088 3.81093
R78 DVDD.n11423 DVDD.n11422 3.81093
R79 DVDD.n1123 DVDD.n1122 3.81093
R80 DVDD.n7768 DVDD.n7767 3.80354
R81 DVDD.n3452 DVDD.n3451 3.80354
R82 DVDD.n3575 DVDD.n3574 3.80354
R83 DVDD.n3674 DVDD.n3673 3.80354
R84 DVDD.n2916 DVDD.n2915 3.80354
R85 DVDD.n3001 DVDD.n3000 3.80353
R86 DVDD.t19 DVDD.n7766 3.6505
R87 DVDD.n7767 DVDD.t19 3.6505
R88 DVDD.n18776 DVDD.t4 3.6505
R89 DVDD.n3451 DVDD.t14 3.6505
R90 DVDD.n3574 DVDD.t38 3.6505
R91 DVDD.n7161 DVDD.t11 3.6505
R92 DVDD.n7815 DVDD.t20 3.6505
R93 DVDD.n7935 DVDD.t35 3.6505
R94 DVDD.n8361 DVDD.t16 3.6505
R95 DVDD.n2054 DVDD.t29 3.6505
R96 DVDD.n2208 DVDD.t23 3.6505
R97 DVDD.n2231 DVDD.t24 3.6505
R98 DVDD.n7099 DVDD.t34 3.6505
R99 DVDD.n6937 DVDD.t27 3.6505
R100 DVDD.n6785 DVDD.t3 3.6505
R101 DVDD.n6552 DVDD.t22 3.6505
R102 DVDD.n1858 DVDD.t26 3.6505
R103 DVDD.n3924 DVDD.t30 3.6505
R104 DVDD.n19832 DVDD.t15 3.6505
R105 DVDD.n19987 DVDD.t39 3.6505
R106 DVDD.n20010 DVDD.t2 3.6505
R107 DVDD.n3878 DVDD.t17 3.6505
R108 DVDD.n4711 DVDD.t8 3.6505
R109 DVDD.n4822 DVDD.t21 3.6505
R110 DVDD.n5143 DVDD.t36 3.6505
R111 DVDD.n19636 DVDD.t10 3.6505
R112 DVDD.n5229 DVDD.t13 3.6505
R113 DVDD.n1544 DVDD.t7 3.6505
R114 DVDD.n959 DVDD.t32 3.6505
R115 DVDD.n1732 DVDD.t33 3.6505
R116 DVDD.n11422 DVDD.t40 3.6505
R117 DVDD.t12 DVDD.n18285 3.6505
R118 DVDD.n18286 DVDD.t12 3.6505
R119 DVDD.n11915 DVDD.t18 3.6505
R120 DVDD.n1122 DVDD.t1 3.6505
R121 DVDD.n11306 DVDD.t28 3.6505
R122 DVDD.n11299 DVDD.t5 3.6505
R123 DVDD.n3031 DVDD.t9 3.6505
R124 DVDD.n2054 DVDD.n2053 3.62748
R125 DVDD.n2208 DVDD.n2207 3.62748
R126 DVDD.n18930 DVDD.n18929 3.62748
R127 DVDD.n7032 DVDD.n7031 3.62748
R128 DVDD.n6942 DVDD.n6941 3.62748
R129 DVDD.n6801 DVDD.n6800 3.62748
R130 DVDD.n6552 DVDD.n6551 3.62748
R131 DVDD.n1861 DVDD.n1860 3.62748
R132 DVDD.n3929 DVDD.n3928 3.62748
R133 DVDD.n19832 DVDD.n19831 3.62748
R134 DVDD.n19987 DVDD.n19986 3.62748
R135 DVDD.n19048 DVDD.n19047 3.62748
R136 DVDD.n4612 DVDD.n4611 3.62748
R137 DVDD.n4716 DVDD.n4715 3.62748
R138 DVDD.n4838 DVDD.n4837 3.62748
R139 DVDD.n5143 DVDD.n5142 3.62748
R140 DVDD.n19639 DVDD.n19638 3.62748
R141 DVDD.n5234 DVDD.n5233 3.62748
R142 DVDD.n2023 DVDD.n2022 3.62747
R143 DVDD.n2155 DVDD.n2154 3.62747
R144 DVDD.n2231 DVDD.n2230 3.62747
R145 DVDD.n7099 DVDD.n7098 3.62747
R146 DVDD.n6937 DVDD.n6936 3.62747
R147 DVDD.n6785 DVDD.n6784 3.62747
R148 DVDD.n6519 DVDD.n6518 3.62747
R149 DVDD.n1858 DVDD.n1857 3.62747
R150 DVDD.n3924 DVDD.n3923 3.62747
R151 DVDD.n19801 DVDD.n19800 3.62747
R152 DVDD.n19934 DVDD.n19933 3.62747
R153 DVDD.n20010 DVDD.n20009 3.62747
R154 DVDD.n3878 DVDD.n3877 3.62747
R155 DVDD.n4711 DVDD.n4710 3.62747
R156 DVDD.n4822 DVDD.n4821 3.62747
R157 DVDD.n5110 DVDD.n5109 3.62747
R158 DVDD.n19636 DVDD.n19635 3.62747
R159 DVDD.n5229 DVDD.n5228 3.62747
R160 DVDD.n18777 DVDD.n18776 3.1796
R161 DVDD.n13889 DVDD.n13888 3.1505
R162 DVDD.n4241 DVDD.n4240 3.1505
R163 DVDD.n13885 DVDD.n13884 3.1505
R164 DVDD.n5799 DVDD.n5798 3.1505
R165 DVDD.n4230 DVDD.n4229 3.1505
R166 DVDD.n4222 DVDD.n4221 3.1505
R167 DVDD.n4226 DVDD.n4225 3.1505
R168 DVDD.n5801 DVDD.n5800 3.1505
R169 DVDD.n5791 DVDD.n5790 3.1505
R170 DVDD.n5793 DVDD.n5792 3.1505
R171 DVDD.n17269 DVDD.n17268 3.1505
R172 DVDD.n17280 DVDD.n17279 3.1505
R173 DVDD.n17276 DVDD.n17275 3.1505
R174 DVDD.n17272 DVDD.n17271 3.1505
R175 DVDD.n17284 DVDD.n17283 3.1505
R176 DVDD.n13893 DVDD.n13892 3.1505
R177 DVDD.n13897 DVDD.n13896 3.1505
R178 DVDD.n13901 DVDD.n13900 3.1505
R179 DVDD.n17406 DVDD.n17405 3.1505
R180 DVDD.n14000 DVDD.n13999 3.1505
R181 DVDD.n17239 DVDD.n17238 3.1505
R182 DVDD.n14089 DVDD.n14088 3.1505
R183 DVDD.n14209 DVDD.n14208 3.1505
R184 DVDD.n14208 DVDD.n14207 3.1505
R185 DVDD.n17588 DVDD.n17587 3.1505
R186 DVDD.n17587 DVDD.n17586 3.1505
R187 DVDD.n17592 DVDD.n17591 3.1505
R188 DVDD.n17650 DVDD.n17649 3.1505
R189 DVDD.n17654 DVDD.n17653 3.1505
R190 DVDD.n17658 DVDD.n17657 3.1505
R191 DVDD.n17662 DVDD.n17661 3.1505
R192 DVDD.n14289 DVDD.n14288 3.1505
R193 DVDD.n14285 DVDD.n14284 3.1505
R194 DVDD.n14281 DVDD.n14280 3.1505
R195 DVDD.n14277 DVDD.n14276 3.1505
R196 DVDD.n14273 DVDD.n14272 3.1505
R197 DVDD.n4174 DVDD.n4173 3.1505
R198 DVDD.n4170 DVDD.n4169 3.1505
R199 DVDD.n4339 DVDD.n4338 3.1505
R200 DVDD.n4343 DVDD.n4342 3.1505
R201 DVDD.n5785 DVDD.n5784 3.1505
R202 DVDD.n5781 DVDD.n5780 3.1505
R203 DVDD.n5777 DVDD.n5776 3.1505
R204 DVDD.n5773 DVDD.n5772 3.1505
R205 DVDD.n17647 DVDD.n17646 3.1505
R206 DVDD.n19430 DVDD.n19429 3.10835
R207 DVDD.n13224 DVDD.n13223 3.10835
R208 DVDD.n11341 DVDD.n11340 3.10835
R209 DVDD.n11338 DVDD.n11337 3.10835
R210 DVDD.n11300 DVDD.n11299 3.10835
R211 DVDD.n9313 DVDD.n9312 3.1048
R212 DVDD.n7816 DVDD.n7815 3.1048
R213 DVDD.n7936 DVDD.n7935 3.1048
R214 DVDD.n8362 DVDD.n8361 3.1048
R215 DVDD.n14141 DVDD.n14140 2.83716
R216 DVDD.n14255 DVDD.n14254 2.53461
R217 DVDD.n17264 DVDD.n17263 2.49083
R218 DVDD.n13916 DVDD.n13915 2.49083
R219 DVDD.n17642 DVDD.n17641 2.49083
R220 DVDD.n14305 DVDD.n14304 2.49083
R221 DVDD.n17623 DVDD.n17622 2.47025
R222 DVDD.n6110 DVDD.n6109 2.25096
R223 DVDD.n12740 DVDD.n12465 2.25096
R224 DVDD.n6122 DVDD.n4068 2.25096
R225 DVDD.n8824 DVDD.n8490 2.25096
R226 DVDD.n14431 DVDD.n11207 2.25095
R227 DVDD.n12758 DVDD.n12458 2.25091
R228 DVDD.n5576 DVDD.n5575 2.25073
R229 DVDD.n5623 DVDD.n5622 2.25073
R230 DVDD.n5669 DVDD.n5668 2.25073
R231 DVDD.n12850 DVDD.n12417 2.25073
R232 DVDD.n12813 DVDD.n12437 2.25073
R233 DVDD.n12777 DVDD.n12450 2.25073
R234 DVDD.n6230 DVDD.n4038 2.25073
R235 DVDD.n6192 DVDD.n4048 2.25073
R236 DVDD.n6154 DVDD.n4058 2.25073
R237 DVDD.n8932 DVDD.n8437 2.25073
R238 DVDD.n8894 DVDD.n8456 2.25073
R239 DVDD.n8856 DVDD.n8474 2.25073
R240 DVDD.n4505 DVDD.n4504 2.25073
R241 DVDD.n6092 DVDD.n5707 2.25069
R242 DVDD.n4542 DVDD.n4075 2.25069
R243 DVDD.n8809 DVDD.n8497 2.25069
R244 DVDD.n14449 DVDD.n11198 2.2505
R245 DVDD.n14449 DVDD.n14439 2.2505
R246 DVDD.n14449 DVDD.n14448 2.2505
R247 DVDD.n6017 DVDD.n5998 2.2505
R248 DVDD.n6017 DVDD.n6007 2.2505
R249 DVDD.n5307 DVDD.n5306 2.2505
R250 DVDD.n4747 DVDD.n4746 2.2505
R251 DVDD.n4652 DVDD.n4651 2.2505
R252 DVDD.n3887 DVDD.n3884 2.2505
R253 DVDD.n19992 DVDD.n19991 2.2505
R254 DVDD.n19837 DVDD.n19836 2.2505
R255 DVDD.n6017 DVDD.n6010 2.2505
R256 DVDD.n6017 DVDD.n6016 2.2505
R257 DVDD.n6040 DVDD.n6039 2.2505
R258 DVDD.n6069 DVDD.n6068 2.2505
R259 DVDD.n13151 DVDD.n13150 2.2505
R260 DVDD.n11573 DVDD.n11572 2.2505
R261 DVDD.n18331 DVDD.n18330 2.2505
R262 DVDD.n1680 DVDD.n1679 2.2505
R263 DVDD.n1539 DVDD.n1538 2.2505
R264 DVDD.n12668 DVDD.n12484 2.2505
R265 DVDD.n12668 DVDD.n12661 2.2505
R266 DVDD.n12668 DVDD.n12475 2.2505
R267 DVDD.n12668 DVDD.n12667 2.2505
R268 DVDD.n17282 DVDD.n17281 2.2505
R269 DVDD.n5803 DVDD.n5802 2.2505
R270 DVDD.n5789 DVDD.n5788 2.2505
R271 DVDD.n5795 DVDD.n5794 2.2505
R272 DVDD.n5813 DVDD.n5811 2.2505
R273 DVDD.n5797 DVDD.n5796 2.2505
R274 DVDD.n17278 DVDD.n17277 2.2505
R275 DVDD.n17274 DVDD.n17273 2.2505
R276 DVDD.n17270 DVDD.n17267 2.2505
R277 DVDD.n17286 DVDD.n17285 2.2505
R278 DVDD.n17818 DVDD.n17185 2.2505
R279 DVDD.n17818 DVDD.n17817 2.2505
R280 DVDD.n17818 DVDD.n17170 2.2505
R281 DVDD.n14005 DVDD.n14004 2.2505
R282 DVDD.n17411 DVDD.n17410 2.2505
R283 DVDD.n14094 DVDD.n14093 2.2505
R284 DVDD.n17244 DVDD.n17243 2.2505
R285 DVDD.n14215 DVDD.n14214 2.2505
R286 DVDD.n14214 DVDD.n14213 2.2505
R287 DVDD.n17594 DVDD.n17593 2.2505
R288 DVDD.n17648 DVDD.n17645 2.2505
R289 DVDD.n17652 DVDD.n17651 2.2505
R290 DVDD.n17656 DVDD.n17655 2.2505
R291 DVDD.n17660 DVDD.n17659 2.2505
R292 DVDD.n17664 DVDD.n17663 2.2505
R293 DVDD.n5783 DVDD.n5782 2.2505
R294 DVDD.n5787 DVDD.n5786 2.2505
R295 DVDD.n5775 DVDD.n5774 2.2505
R296 DVDD.n5779 DVDD.n5778 2.2505
R297 DVDD.n5875 DVDD.n5874 2.2505
R298 DVDD.n4345 DVDD.n4344 2.2505
R299 DVDD.n4468 DVDD.n4109 2.2505
R300 DVDD.n4468 DVDD.n4100 2.2505
R301 DVDD.n4491 DVDD.n4490 2.2505
R302 DVDD.n6453 DVDD.n4001 2.2505
R303 DVDD.n6973 DVDD.n6972 2.2505
R304 DVDD.n7108 DVDD.n7105 2.2505
R305 DVDD.n7072 DVDD.n7071 2.2505
R306 DVDD.n2213 DVDD.n2212 2.2505
R307 DVDD.n2059 DVDD.n2058 2.2505
R308 DVDD.n4468 DVDD.n4461 2.2505
R309 DVDD.n4468 DVDD.n4467 2.2505
R310 DVDD.n4172 DVDD.n4171 2.2505
R311 DVDD.n4176 DVDD.n4175 2.2505
R312 DVDD.n4168 DVDD.n4167 2.2505
R313 DVDD.n4341 DVDD.n4340 2.2505
R314 DVDD.n4519 DVDD.n4518 2.2505
R315 DVDD.n4232 DVDD.n4231 2.2505
R316 DVDD.n4220 DVDD.n4219 2.2505
R317 DVDD.n4228 DVDD.n4227 2.2505
R318 DVDD.n4224 DVDD.n4223 2.2505
R319 DVDD.n4243 DVDD.n4242 2.2505
R320 DVDD.n8754 DVDD.n8732 2.2505
R321 DVDD.n8754 DVDD.n8735 2.2505
R322 DVDD.n9240 DVDD.n9239 2.2505
R323 DVDD.n3569 DVDD.n3568 2.2505
R324 DVDD.n3458 DVDD.n3457 2.2505
R325 DVDD.n9990 DVDD.n9989 2.2505
R326 DVDD.n8754 DVDD.n8744 2.2505
R327 DVDD.n8754 DVDD.n8753 2.2505
R328 DVDD.n14291 DVDD.n14290 2.2505
R329 DVDD.n14287 DVDD.n14286 2.2505
R330 DVDD.n14283 DVDD.n14282 2.2505
R331 DVDD.n14279 DVDD.n14278 2.2505
R332 DVDD.n14275 DVDD.n14274 2.2505
R333 DVDD.n13891 DVDD.n13890 2.2505
R334 DVDD.n13895 DVDD.n13894 2.2505
R335 DVDD.n13899 DVDD.n13898 2.2505
R336 DVDD.n13903 DVDD.n13902 2.2505
R337 DVDD.n13887 DVDD.n13886 2.2505
R338 DVDD.n10053 DVDD.n7155 2.2505
R339 DVDD.n5814 DVDD.n5813 2.25042
R340 DVDD.n5816 DVDD.n5795 2.25042
R341 DVDD.n5880 DVDD.n5779 2.25042
R342 DVDD.n5878 DVDD.n5787 2.25042
R343 DVDD.n4244 DVDD.n4243 2.25042
R344 DVDD.n4246 DVDD.n4228 2.25042
R345 DVDD.n4346 DVDD.n4345 2.25042
R346 DVDD.n4334 DVDD.n4176 2.25042
R347 DVDD.n6070 DVDD.n5723 2.25038
R348 DVDD.n4520 DVDD.n4094 2.25038
R349 DVDD.n5578 DVDD.n4600 2.25034
R350 DVDD.n12848 DVDD.n12426 2.25034
R351 DVDD.n6228 DVDD.n4046 2.25034
R352 DVDD.n8930 DVDD.n8446 2.25034
R353 DVDD.n5625 DVDD.n4585 2.25025
R354 DVDD.n12811 DVDD.n12445 2.25025
R355 DVDD.n6190 DVDD.n4056 2.25025
R356 DVDD.n8892 DVDD.n8464 2.25025
R357 DVDD.n5671 DVDD.n4570 2.25016
R358 DVDD.n12726 DVDD.n12472 2.25016
R359 DVDD.n12775 DVDD.n12774 2.25016
R360 DVDD.n6152 DVDD.n4066 2.25016
R361 DVDD.n8854 DVDD.n8482 2.25016
R362 DVDD.n6107 DVDD.n6106 2.25011
R363 DVDD.n12738 DVDD.n12737 2.25011
R364 DVDD.n6120 DVDD.n6119 2.25011
R365 DVDD.n8822 DVDD.n8821 2.25011
R366 DVDD.n5809 DVDD.n5803 2.24737
R367 DVDD.n5876 DVDD.n5875 2.24737
R368 DVDD.n4238 DVDD.n4232 2.24737
R369 DVDD.n12919 DVDD.n12918 2.1005
R370 DVDD.n12918 DVDD.n12917 2.1005
R371 DVDD.n9026 DVDD.n9025 2.1005
R372 DVDD.n9025 DVDD.n9024 2.1005
R373 DVDD.n9034 DVDD.n9033 2.1005
R374 DVDD.n9033 DVDD.n9032 2.1005
R375 DVDD.n8979 DVDD.n8978 2.1005
R376 DVDD.n8978 DVDD.n8977 2.1005
R377 DVDD.n8973 DVDD.n8972 2.1005
R378 DVDD.n8972 DVDD.n8971 2.1005
R379 DVDD.n8965 DVDD.n8964 2.1005
R380 DVDD.n8964 DVDD.n8963 2.1005
R381 DVDD.n8957 DVDD.n8956 2.1005
R382 DVDD.n8956 DVDD.n8955 2.1005
R383 DVDD.n4032 DVDD.n4031 2.1005
R384 DVDD.n4031 DVDD.n4030 2.1005
R385 DVDD.n4023 DVDD.n4022 2.1005
R386 DVDD.n4022 DVDD.n4021 2.1005
R387 DVDD.n4017 DVDD.n4016 2.1005
R388 DVDD.n4016 DVDD.n4015 2.1005
R389 DVDD.n4009 DVDD.n4008 2.1005
R390 DVDD.n4008 DVDD.n4007 2.1005
R391 DVDD.n5537 DVDD.n5536 2.1005
R392 DVDD.n5536 DVDD.n5535 2.1005
R393 DVDD.n5525 DVDD.n5524 2.1005
R394 DVDD.n5524 DVDD.n5523 2.1005
R395 DVDD.n5519 DVDD.n5518 2.1005
R396 DVDD.n5518 DVDD.n5517 2.1005
R397 DVDD.n5511 DVDD.n5510 2.1005
R398 DVDD.n5510 DVDD.n5509 2.1005
R399 DVDD.n12940 DVDD.n12939 2.1005
R400 DVDD.n12939 DVDD.n12938 2.1005
R401 DVDD.n12927 DVDD.n12926 2.1005
R402 DVDD.n12926 DVDD.n12925 2.1005
R403 DVDD.n12935 DVDD.n12934 2.1005
R404 DVDD.n12934 DVDD.n12933 2.1005
R405 DVDD.n12954 DVDD.n12953 2.1005
R406 DVDD.n12953 DVDD.n12952 2.1005
R407 DVDD.n12946 DVDD.n12945 2.1005
R408 DVDD.n12945 DVDD.n12944 2.1005
R409 DVDD.n12915 DVDD.n12914 2.1005
R410 DVDD.n12914 DVDD.n12913 2.1005
R411 DVDD.n8992 DVDD.n8991 2.1005
R412 DVDD.n8991 DVDD.n8990 2.1005
R413 DVDD.n9014 DVDD.n9013 2.1005
R414 DVDD.n9013 DVDD.n9012 2.1005
R415 DVDD.n9022 DVDD.n9021 2.1005
R416 DVDD.n9021 DVDD.n9020 2.1005
R417 DVDD.n9006 DVDD.n9005 2.1005
R418 DVDD.n9005 DVDD.n9004 2.1005
R419 DVDD.n9000 DVDD.n8999 2.1005
R420 DVDD.n8999 DVDD.n8998 2.1005
R421 DVDD.n8984 DVDD.n8983 2.1005
R422 DVDD.n8983 DVDD.n8982 2.1005
R423 DVDD.n4500 DVDD.n4499 2.1005
R424 DVDD.n4499 DVDD.n4498 2.1005
R425 DVDD.n5715 DVDD.n5714 2.1005
R426 DVDD.n5714 DVDD.n5713 2.1005
R427 DVDD.n6057 DVDD.n6056 2.1005
R428 DVDD.n6056 DVDD.n6055 2.1005
R429 DVDD.n4086 DVDD.n4085 2.1005
R430 DVDD.n4085 DVDD.n4084 2.1005
R431 DVDD.n4515 DVDD.n4514 2.1005
R432 DVDD.n4514 DVDD.n4513 2.1005
R433 DVDD.n4090 DVDD.n4089 2.1005
R434 DVDD.n4089 DVDD.n4088 2.1005
R435 DVDD.n6065 DVDD.n6064 2.1005
R436 DVDD.n6064 DVDD.n6063 2.1005
R437 DVDD.n5719 DVDD.n5718 2.1005
R438 DVDD.n5718 DVDD.n5717 2.1005
R439 DVDD.n12881 DVDD.n12880 2.1005
R440 DVDD.n12880 DVDD.n12879 2.1005
R441 DVDD.n12895 DVDD.n12894 2.1005
R442 DVDD.n12894 DVDD.n12893 2.1005
R443 DVDD.n12907 DVDD.n12906 2.1005
R444 DVDD.n12906 DVDD.n12905 2.1005
R445 DVDD.n12899 DVDD.n12898 2.1005
R446 DVDD.n12898 DVDD.n12897 2.1005
R447 DVDD.n12887 DVDD.n12886 2.1005
R448 DVDD.n12886 DVDD.n12885 2.1005
R449 DVDD.n17389 DVDD.n17388 2.1005
R450 DVDD.n17381 DVDD.n17380 2.1005
R451 DVDD.n17377 DVDD.n17376 2.1005
R452 DVDD.n17373 DVDD.n17372 2.1005
R453 DVDD.n17369 DVDD.n17368 2.1005
R454 DVDD.n4212 DVDD.n4211 2.1005
R455 DVDD.n4216 DVDD.n4215 2.1005
R456 DVDD.n4256 DVDD.n4255 2.1005
R457 DVDD.n4260 DVDD.n4259 2.1005
R458 DVDD.n13979 DVDD.n13978 2.1005
R459 DVDD.n13983 DVDD.n13982 2.1005
R460 DVDD.n13987 DVDD.n13986 2.1005
R461 DVDD.n13991 DVDD.n13990 2.1005
R462 DVDD.n13995 DVDD.n13994 2.1005
R463 DVDD.n17397 DVDD.n17396 2.1005
R464 DVDD.n17401 DVDD.n17400 2.1005
R465 DVDD.n17393 DVDD.n17392 2.1005
R466 DVDD.n17385 DVDD.n17384 2.1005
R467 DVDD.n17234 DVDD.n17233 2.1005
R468 DVDD.n17230 DVDD.n17229 2.1005
R469 DVDD.n17226 DVDD.n17225 2.1005
R470 DVDD.n17222 DVDD.n17221 2.1005
R471 DVDD.n17218 DVDD.n17217 2.1005
R472 DVDD.n17214 DVDD.n17213 2.1005
R473 DVDD.n17210 DVDD.n17209 2.1005
R474 DVDD.n17206 DVDD.n17205 2.1005
R475 DVDD.n17202 DVDD.n17201 2.1005
R476 DVDD.n4200 DVDD.n4199 2.1005
R477 DVDD.n4204 DVDD.n4203 2.1005
R478 DVDD.n4281 DVDD.n4280 2.1005
R479 DVDD.n4285 DVDD.n4284 2.1005
R480 DVDD.n14068 DVDD.n14067 2.1005
R481 DVDD.n14072 DVDD.n14071 2.1005
R482 DVDD.n14076 DVDD.n14075 2.1005
R483 DVDD.n14080 DVDD.n14079 2.1005
R484 DVDD.n14084 DVDD.n14083 2.1005
R485 DVDD.n14182 DVDD.n14181 2.1005
R486 DVDD.n14201 DVDD.n14200 2.1005
R487 DVDD.n14200 DVDD.n14199 2.1005
R488 DVDD.n14195 DVDD.n14194 2.1005
R489 DVDD.n14194 DVDD.n14193 2.1005
R490 DVDD.n14189 DVDD.n14188 2.1005
R491 DVDD.n14188 DVDD.n14187 2.1005
R492 DVDD.n14183 DVDD.n14182 2.1005
R493 DVDD.n14177 DVDD.n14176 2.1005
R494 DVDD.n14176 DVDD.n14175 2.1005
R495 DVDD.n4315 DVDD.n4314 2.1005
R496 DVDD.n4314 DVDD.n4313 2.1005
R497 DVDD.n4307 DVDD.n4306 2.1005
R498 DVDD.n4306 DVDD.n4305 2.1005
R499 DVDD.n4193 DVDD.n4192 2.1005
R500 DVDD.n4192 DVDD.n4191 2.1005
R501 DVDD.n4185 DVDD.n4184 2.1005
R502 DVDD.n4184 DVDD.n4183 2.1005
R503 DVDD.n17550 DVDD.n17549 2.1005
R504 DVDD.n17549 DVDD.n17548 2.1005
R505 DVDD.n17554 DVDD.n17553 2.1005
R506 DVDD.n17553 DVDD.n17552 2.1005
R507 DVDD.n17558 DVDD.n17557 2.1005
R508 DVDD.n17557 DVDD.n17556 2.1005
R509 DVDD.n17562 DVDD.n17561 2.1005
R510 DVDD.n17561 DVDD.n17560 2.1005
R511 DVDD.n17566 DVDD.n17565 2.1005
R512 DVDD.n17565 DVDD.n17564 2.1005
R513 DVDD.n17570 DVDD.n17569 2.1005
R514 DVDD.n17569 DVDD.n17568 2.1005
R515 DVDD.n17574 DVDD.n17573 2.1005
R516 DVDD.n17573 DVDD.n17572 2.1005
R517 DVDD.n17578 DVDD.n17577 2.1005
R518 DVDD.n17577 DVDD.n17576 2.1005
R519 DVDD.n17582 DVDD.n17581 2.1005
R520 DVDD.n17581 DVDD.n17580 2.1005
R521 DVDD.n14220 DVDD.n14218 1.6285
R522 DVDD.n17516 DVDD.n17514 1.62213
R523 DVDD.n17182 DVDD.n17181 1.5755
R524 DVDD.n17181 DVDD.n17180 1.5755
R525 DVDD.n17811 DVDD.n17810 1.5755
R526 DVDD.n17810 DVDD.n17809 1.5755
R527 DVDD.n17814 DVDD.n17813 1.5755
R528 DVDD.n17813 DVDD.n17812 1.5755
R529 DVDD.n12478 DVDD.n12477 1.5755
R530 DVDD.n12477 DVDD.n12476 1.5755
R531 DVDD.n12481 DVDD.n12480 1.5755
R532 DVDD.n12480 DVDD.n12479 1.5755
R533 DVDD.n12658 DVDD.n12657 1.5755
R534 DVDD.n12657 DVDD.n12656 1.5755
R535 DVDD.n12664 DVDD.n12663 1.5755
R536 DVDD.n12663 DVDD.n12662 1.5755
R537 DVDD.n6001 DVDD.n6000 1.5755
R538 DVDD.n6000 DVDD.n5999 1.5755
R539 DVDD.n6004 DVDD.n6003 1.5755
R540 DVDD.n6003 DVDD.n6002 1.5755
R541 DVDD.n5995 DVDD.n5994 1.5755
R542 DVDD.n5994 DVDD.n5993 1.5755
R543 DVDD.n6013 DVDD.n6012 1.5755
R544 DVDD.n6012 DVDD.n6011 1.5755
R545 DVDD.n4106 DVDD.n4105 1.5755
R546 DVDD.n4105 DVDD.n4104 1.5755
R547 DVDD.n4458 DVDD.n4457 1.5755
R548 DVDD.n4457 DVDD.n4456 1.5755
R549 DVDD.n4097 DVDD.n4096 1.5755
R550 DVDD.n4096 DVDD.n4095 1.5755
R551 DVDD.n4464 DVDD.n4463 1.5755
R552 DVDD.n4463 DVDD.n4462 1.5755
R553 DVDD.n8738 DVDD.n8737 1.5755
R554 DVDD.n8737 DVDD.n8736 1.5755
R555 DVDD.n8741 DVDD.n8740 1.5755
R556 DVDD.n8740 DVDD.n8739 1.5755
R557 DVDD.n8747 DVDD.n8746 1.5755
R558 DVDD.n8746 DVDD.n8745 1.5755
R559 DVDD.n8750 DVDD.n8749 1.5755
R560 DVDD.n8749 DVDD.n8748 1.5755
R561 DVDD.n14436 DVDD.n14435 1.5755
R562 DVDD.n14435 DVDD.n14434 1.5755
R563 DVDD.n14442 DVDD.n14441 1.5755
R564 DVDD.n14441 DVDD.n14440 1.5755
R565 DVDD.n14445 DVDD.n14444 1.5755
R566 DVDD.n14444 DVDD.n14443 1.5755
R567 DVDD.n5916 DVDD.n5915 1.5755
R568 DVDD.n5915 DVDD.n5914 1.5755
R569 DVDD.n5906 DVDD.n5905 1.5755
R570 DVDD.n5905 DVDD.n5904 1.5755
R571 DVDD.n5910 DVDD.n5909 1.5755
R572 DVDD.n5909 DVDD.n5908 1.5755
R573 DVDD.n5898 DVDD.n5897 1.5755
R574 DVDD.n5897 DVDD.n5896 1.5755
R575 DVDD.n17705 DVDD.n17704 1.5755
R576 DVDD.n17704 DVDD.n17703 1.5755
R577 DVDD.n17711 DVDD.n17710 1.5755
R578 DVDD.n17710 DVDD.n17709 1.5755
R579 DVDD.n17732 DVDD.n17731 1.5755
R580 DVDD.n17731 DVDD.n17730 1.5755
R581 DVDD.n17726 DVDD.n17725 1.5755
R582 DVDD.n17725 DVDD.n17724 1.5755
R583 DVDD.n17720 DVDD.n17719 1.5755
R584 DVDD.n17719 DVDD.n17718 1.5755
R585 DVDD.n17714 DVDD.n17713 1.5755
R586 DVDD.n17713 DVDD.n17712 1.5755
R587 DVDD.n5892 DVDD.n5891 1.5755
R588 DVDD.n5891 DVDD.n5890 1.5755
R589 DVDD.n4361 DVDD.n4360 1.5755
R590 DVDD.n4360 DVDD.n4359 1.5755
R591 DVDD.n4373 DVDD.n4372 1.5755
R592 DVDD.n4372 DVDD.n4371 1.5755
R593 DVDD.n4367 DVDD.n4366 1.5755
R594 DVDD.n4366 DVDD.n4365 1.5755
R595 DVDD.n8629 DVDD.n8628 1.5755
R596 DVDD.n8628 DVDD.n8627 1.5755
R597 DVDD.n8635 DVDD.n8634 1.5755
R598 DVDD.n8634 DVDD.n8633 1.5755
R599 DVDD.n8647 DVDD.n8646 1.5755
R600 DVDD.n8646 DVDD.n8645 1.5755
R601 DVDD.n8641 DVDD.n8640 1.5755
R602 DVDD.n8640 DVDD.n8639 1.5755
R603 DVDD.n14330 DVDD.n14329 1.5755
R604 DVDD.n14329 DVDD.n14328 1.5755
R605 DVDD.n14352 DVDD.n14351 1.5755
R606 DVDD.n14351 DVDD.n14350 1.5755
R607 DVDD.n14346 DVDD.n14345 1.5755
R608 DVDD.n14345 DVDD.n14344 1.5755
R609 DVDD.n14340 DVDD.n14339 1.5755
R610 DVDD.n14339 DVDD.n14338 1.5755
R611 DVDD.n14102 DVDD.n14101 1.5755
R612 DVDD.n17192 DVDD.n17191 1.5755
R613 DVDD.n19054 DVDD.n19053 1.5005
R614 DVDD.n20050 DVDD.n20049 1.5005
R615 DVDD.n4899 DVDD.n4898 1.5005
R616 DVDD.n5163 DVDD.n5162 1.5005
R617 DVDD.n5533 DVDD.n5532 1.5005
R618 DVDD.n5532 DVDD.n5531 1.5005
R619 DVDD.n5541 DVDD.n5540 1.5005
R620 DVDD.n5540 DVDD.n5539 1.5005
R621 DVDD.n5522 DVDD.n5521 1.5005
R622 DVDD.n5521 DVDD.n5520 1.5005
R623 DVDD.n5515 DVDD.n5514 1.5005
R624 DVDD.n5514 DVDD.n5513 1.5005
R625 DVDD.n5507 DVDD.n5506 1.5005
R626 DVDD.n5506 DVDD.n5505 1.5005
R627 DVDD.n6039 DVDD.n6038 1.5005
R628 DVDD.n6038 DVDD.n6037 1.5005
R629 DVDD.n6061 DVDD.n6060 1.5005
R630 DVDD.n6060 DVDD.n6059 1.5005
R631 DVDD.n6068 DVDD.n6067 1.5005
R632 DVDD.n6067 DVDD.n6066 1.5005
R633 DVDD.n5723 DVDD.n5722 1.5005
R634 DVDD.n5722 DVDD.n5721 1.5005
R635 DVDD.n5711 DVDD.n5710 1.5005
R636 DVDD.n5710 DVDD.n5709 1.5005
R637 DVDD.n12911 DVDD.n12910 1.5005
R638 DVDD.n1723 DVDD.n1722 1.5005
R639 DVDD.n19436 DVDD.n19435 1.5005
R640 DVDD.n11854 DVDD.n11853 1.5005
R641 DVDD.n12344 DVDD.n12343 1.5005
R642 DVDD.n12931 DVDD.n12930 1.5005
R643 DVDD.n12930 DVDD.n12929 1.5005
R644 DVDD.n12957 DVDD.n12956 1.5005
R645 DVDD.n12956 DVDD.n12955 1.5005
R646 DVDD.n12950 DVDD.n12949 1.5005
R647 DVDD.n12949 DVDD.n12948 1.5005
R648 DVDD.n12942 DVDD.n12937 1.5005
R649 DVDD.n12937 DVDD.n12936 1.5005
R650 DVDD.n12910 DVDD.n12909 1.5005
R651 DVDD.n12903 DVDD.n12902 1.5005
R652 DVDD.n12902 DVDD.n12901 1.5005
R653 DVDD.n12896 DVDD.n12876 1.5005
R654 DVDD.n12876 DVDD.n12875 1.5005
R655 DVDD.n12891 DVDD.n12890 1.5005
R656 DVDD.n12890 DVDD.n12889 1.5005
R657 DVDD.n12883 DVDD.n12878 1.5005
R658 DVDD.n12878 DVDD.n12877 1.5005
R659 DVDD.n12923 DVDD.n12922 1.5005
R660 DVDD.n12922 DVDD.n12921 1.5005
R661 DVDD.n17379 DVDD.n17378 1.5005
R662 DVDD.n17375 DVDD.n17374 1.5005
R663 DVDD.n17371 DVDD.n17370 1.5005
R664 DVDD.n17367 DVDD.n17366 1.5005
R665 DVDD.n17403 DVDD.n17402 1.5005
R666 DVDD.n17399 DVDD.n17398 1.5005
R667 DVDD.n17395 DVDD.n17394 1.5005
R668 DVDD.n17391 DVDD.n17390 1.5005
R669 DVDD.n17387 DVDD.n17386 1.5005
R670 DVDD.n17383 DVDD.n17382 1.5005
R671 DVDD.n17236 DVDD.n17235 1.5005
R672 DVDD.n17232 DVDD.n17231 1.5005
R673 DVDD.n17228 DVDD.n17227 1.5005
R674 DVDD.n17224 DVDD.n17223 1.5005
R675 DVDD.n17220 DVDD.n17219 1.5005
R676 DVDD.n17216 DVDD.n17215 1.5005
R677 DVDD.n17212 DVDD.n17211 1.5005
R678 DVDD.n17208 DVDD.n17207 1.5005
R679 DVDD.n17204 DVDD.n17203 1.5005
R680 DVDD.n17200 DVDD.n17199 1.5005
R681 DVDD.n17547 DVDD.n17546 1.5005
R682 DVDD.n17546 DVDD.n17545 1.5005
R683 DVDD.n17551 DVDD.n17544 1.5005
R684 DVDD.n17544 DVDD.n17543 1.5005
R685 DVDD.n17555 DVDD.n17542 1.5005
R686 DVDD.n17542 DVDD.n17541 1.5005
R687 DVDD.n17559 DVDD.n17540 1.5005
R688 DVDD.n17540 DVDD.n17539 1.5005
R689 DVDD.n17563 DVDD.n17538 1.5005
R690 DVDD.n17538 DVDD.n17537 1.5005
R691 DVDD.n17567 DVDD.n17536 1.5005
R692 DVDD.n17536 DVDD.n17535 1.5005
R693 DVDD.n17571 DVDD.n17534 1.5005
R694 DVDD.n17534 DVDD.n17533 1.5005
R695 DVDD.n17575 DVDD.n17532 1.5005
R696 DVDD.n17532 DVDD.n17531 1.5005
R697 DVDD.n17579 DVDD.n17530 1.5005
R698 DVDD.n17530 DVDD.n17529 1.5005
R699 DVDD.n17583 DVDD.n17528 1.5005
R700 DVDD.n17528 DVDD.n17527 1.5005
R701 DVDD.n2271 DVDD.n2270 1.5005
R702 DVDD.n18946 DVDD.n18935 1.5005
R703 DVDD.n6862 DVDD.n6861 1.5005
R704 DVDD.n6572 DVDD.n6571 1.5005
R705 DVDD.n4210 DVDD.n4209 1.5005
R706 DVDD.n4218 DVDD.n4217 1.5005
R707 DVDD.n4214 DVDD.n4213 1.5005
R708 DVDD.n4262 DVDD.n4261 1.5005
R709 DVDD.n4258 DVDD.n4257 1.5005
R710 DVDD.n4198 DVDD.n4197 1.5005
R711 DVDD.n4206 DVDD.n4205 1.5005
R712 DVDD.n4202 DVDD.n4201 1.5005
R713 DVDD.n4287 DVDD.n4286 1.5005
R714 DVDD.n4283 DVDD.n4282 1.5005
R715 DVDD.n4312 DVDD.n4311 1.5005
R716 DVDD.n4311 DVDD.n4310 1.5005
R717 DVDD.n4316 DVDD.n4309 1.5005
R718 DVDD.n4309 DVDD.n4308 1.5005
R719 DVDD.n4190 DVDD.n4189 1.5005
R720 DVDD.n4189 DVDD.n4188 1.5005
R721 DVDD.n4194 DVDD.n4187 1.5005
R722 DVDD.n4187 DVDD.n4186 1.5005
R723 DVDD.n4182 DVDD.n4181 1.5005
R724 DVDD.n4181 DVDD.n4180 1.5005
R725 DVDD.n4028 DVDD.n4027 1.5005
R726 DVDD.n4027 DVDD.n4026 1.5005
R727 DVDD.n4036 DVDD.n4035 1.5005
R728 DVDD.n4035 DVDD.n4034 1.5005
R729 DVDD.n4020 DVDD.n4019 1.5005
R730 DVDD.n4019 DVDD.n4018 1.5005
R731 DVDD.n4013 DVDD.n4012 1.5005
R732 DVDD.n4012 DVDD.n4011 1.5005
R733 DVDD.n4005 DVDD.n4004 1.5005
R734 DVDD.n4004 DVDD.n4003 1.5005
R735 DVDD.n4504 DVDD.n4503 1.5005
R736 DVDD.n4503 DVDD.n4502 1.5005
R737 DVDD.n4518 DVDD.n4517 1.5005
R738 DVDD.n4517 DVDD.n4516 1.5005
R739 DVDD.n4094 DVDD.n4093 1.5005
R740 DVDD.n4093 DVDD.n4092 1.5005
R741 DVDD.n4082 DVDD.n4081 1.5005
R742 DVDD.n4081 DVDD.n4080 1.5005
R743 DVDD.n4490 DVDD.n4488 1.5005
R744 DVDD.n4488 DVDD.n4487 1.5005
R745 DVDD.n9753 DVDD.n9752 1.5005
R746 DVDD.n9540 DVDD.n9539 1.5005
R747 DVDD.n13981 DVDD.n13980 1.5005
R748 DVDD.n13985 DVDD.n13984 1.5005
R749 DVDD.n13989 DVDD.n13988 1.5005
R750 DVDD.n13993 DVDD.n13992 1.5005
R751 DVDD.n13997 DVDD.n13996 1.5005
R752 DVDD.n14070 DVDD.n14069 1.5005
R753 DVDD.n14074 DVDD.n14073 1.5005
R754 DVDD.n14078 DVDD.n14077 1.5005
R755 DVDD.n14082 DVDD.n14081 1.5005
R756 DVDD.n14086 DVDD.n14085 1.5005
R757 DVDD.n14204 DVDD.n14203 1.5005
R758 DVDD.n14203 DVDD.n14202 1.5005
R759 DVDD.n14198 DVDD.n14197 1.5005
R760 DVDD.n14197 DVDD.n14196 1.5005
R761 DVDD.n14192 DVDD.n14191 1.5005
R762 DVDD.n14191 DVDD.n14190 1.5005
R763 DVDD.n14186 DVDD.n14185 1.5005
R764 DVDD.n14185 DVDD.n14184 1.5005
R765 DVDD.n14180 DVDD.n14179 1.5005
R766 DVDD.n14179 DVDD.n14178 1.5005
R767 DVDD.n9030 DVDD.n9029 1.5005
R768 DVDD.n9029 DVDD.n9028 1.5005
R769 DVDD.n9038 DVDD.n9037 1.5005
R770 DVDD.n9037 DVDD.n9036 1.5005
R771 DVDD.n8976 DVDD.n8975 1.5005
R772 DVDD.n8975 DVDD.n8974 1.5005
R773 DVDD.n8969 DVDD.n8968 1.5005