*SPEF "ieee 1481-1999"
*DESIGN "dac_matrix_decoder"
*DATE "15:35:30 Saturday April 20, 2024"
*VENDOR "The OpenROAD Project"
*PROGRAM "OpenROAD"
*VERSION "0889970d1790a2617e69f253221b8bd7626e51dc"
*DESIGN_FLOW "NAME_SCOPE LOCAL" "PIN_CAP NONE"
*DIVIDER /
*DELIMITER :
*BUS_DELIMITER []
*T_UNIT 1 NS
*C_UNIT 1 PF
*R_UNIT 1 OHM
*L_UNIT 1 HENRY

*NAME_MAP
*3 b_in[0]
*4 b_in[1]
*5 b_in[2]
*6 t_out[0]
*7 t_out[1]
*8 t_out[2]
*9 t_out[3]
*10 t_out[4]
*11 t_out[5]
*12 t_out[6]
*13 _00_
*14 _01_
*15 net1
*16 net10
*17 net2
*18 net3
*19 net4
*20 net5
*21 net6
*22 net7
*23 net8
*24 net9
*25 FILLER_0_0_10
*26 FILLER_0_0_14
*27 FILLER_0_0_2
*28 FILLER_0_1_8
*29 FILLER_0_2_2
*30 FILLER_0_3_10
*31 FILLER_0_3_23
*32 FILLER_0_3_8
*33 FILLER_0_5_2
*34 FILLER_0_7_2
*35 FILLER_0_8_2
*36 FILLER_0_9_8
*37 PHY_EDGE_ROW_0_Left_10
*38 PHY_EDGE_ROW_0_Right_0
*39 PHY_EDGE_ROW_1_Left_11
*40 PHY_EDGE_ROW_1_Right_1
*41 PHY_EDGE_ROW_2_Left_12
*42 PHY_EDGE_ROW_2_Right_2
*43 PHY_EDGE_ROW_3_Left_13
*44 PHY_EDGE_ROW_3_Right_3
*45 PHY_EDGE_ROW_4_Left_14
*46 PHY_EDGE_ROW_4_Right_4
*47 PHY_EDGE_ROW_5_Left_15
*48 PHY_EDGE_ROW_5_Right_5
*49 PHY_EDGE_ROW_6_Left_16
*50 PHY_EDGE_ROW_6_Right_6
*51 PHY_EDGE_ROW_7_Left_17
*52 PHY_EDGE_ROW_7_Right_7
*53 PHY_EDGE_ROW_8_Left_18
*54 PHY_EDGE_ROW_8_Right_8
*55 PHY_EDGE_ROW_9_Left_19
*56 PHY_EDGE_ROW_9_Right_9
*57 _02_
*58 _03_
*59 _04_
*60 _05_
*61 _06_
*62 _07_
*63 _08_
*64 _09_
*65 _10_
*66 input1
*67 input2
*68 input3
*69 output10
*70 output4
*71 output5
*72 output6
*73 output7
*74 output8
*75 output9

*PORTS
b_in[0] I
b_in[1] I
b_in[2] I
t_out[0] O
t_out[1] O
t_out[2] O
t_out[3] O
t_out[4] O
t_out[5] O
t_out[6] O

*D_NET *3 0.000222039
*CONN
*P b_in[0] I
*I *66:I I *D gf180mcu_fd_sc_mcu7t5v0__clkbuf_1
*CAP
1 b_in[0] 0.000111019
2 *66:I 0.000111019
3 *66:I *70:I 0
*RES
1 b_in[0] *66:I 9.572 
*END

*D_NET *4 0.0011976
*CONN
*P b_in[1] I
*I *67:I I *D gf180mcu_fd_sc_mcu7t5v0__clkbuf_1
*CAP
1 b_in[1] 0.000571019
2 *67:I 0.000571019
3 *67:I *17:27 3.55077e-05
4 *67:I *20:10 2.00565e-05
*RES
1 b_in[1] *67:I 12.068 
*END

*D_NET *5 0.000597115
*CONN
*P b_in[2] I
*I *68:I I *D gf180mcu_fd_sc_mcu7t5v0__clkbuf_1
*CAP
1 b_in[2] 0.000283638
2 *68:I 0.000283638
3 *68:I *62:A2 0
4 *68:I *18:12 2.98389e-05
*RES
1 b_in[2] *68:I 11.028 
*END

*D_NET *6 0.000709201
*CONN
*P t_out[0] O
*I *70:Z O *D gf180mcu_fd_sc_mcu7t5v0__clkbuf_3
*CAP
1 t_out[0] 0.000144976
2 *70:Z 0.000144976
3 t_out[0] t_out[1] 0
4 t_out[0] *58:A1 0.00033778
5 t_out[0] *58:A2 8.14679e-05
*RES
1 *70:Z t_out[0] 10.404 
*END

*D_NET *7 0.000456378
*CONN
*P t_out[1] O
*I *71:Z O *D gf180mcu_fd_sc_mcu7t5v0__clkbuf_3
*CAP
1 t_out[1] 9.37178e-05
2 *71:Z 9.37178e-05
3 t_out[1] t_out[2] 0
4 t_out[1] *58:A2 4.63309e-05
5 t_out[1] *15:10 2.80885e-05
6 t_out[1] *15:25 0.000194522
7 t_out[0] t_out[1] 0
*RES
1 *71:Z t_out[1] 9.988 
*END

*D_NET *8 0.000801467
*CONN
*P t_out[2] O
*I *72:Z O *D gf180mcu_fd_sc_mcu7t5v0__clkbuf_3
*CAP
1 t_out[2] 0.000162648
2 *72:Z 0.000162648
3 t_out[2] t_out[3] 0
4 t_out[2] *59:B 0.000341337
5 t_out[2] *15:36 0.000134833
6 t_out[1] t_out[2] 0
*RES
1 *72:Z t_out[2] 10.612 
*END

*D_NET *9 0.000317069
*CONN
*P t_out[3] O
*I *73:Z O *D gf180mcu_fd_sc_mcu7t5v0__clkbuf_3
*CAP
1 t_out[3] 0.000132042
2 *73:Z 0.000132042
3 t_out[3] t_out[4] 0
4 t_out[3] *59:B 4.17589e-06
5 t_out[3] *15:36 4.8809e-05
6 t_out[2] t_out[3] 0
*RES
1 *73:Z t_out[3] 9.988 
*END

*D_NET *10 0.000162552
*CONN
*P t_out[4] O
*I *74:Z O *D gf180mcu_fd_sc_mcu7t5v0__clkbuf_3
*CAP
1 t_out[4] 7.79865e-05
2 *74:Z 7.79865e-05
3 t_out[4] t_out[5] 0
4 t_out[4] *62:A1 6.57935e-06
5 t_out[3] t_out[4] 0
*RES
1 *74:Z t_out[4] 9.468 
*END

*D_NET *11 0.000417372
*CONN
*P t_out[5] O
*I *75:Z O *D gf180mcu_fd_sc_mcu7t5v0__clkbuf_3
*CAP
1 t_out[5] 0.000170622
2 *75:Z 0.000170622
3 t_out[5] *62:A1 3.71367e-05
4 t_out[5] *69:I 3.89916e-05
5 t_out[4] t_out[5] 0
*RES
1 *75:Z t_out[5] 10.196 
*END

*D_NET *12 0.000119272
*CONN
*P t_out[6] O
*I *69:Z O *D gf180mcu_fd_sc_mcu7t5v0__clkbuf_3
*CAP
1 t_out[6] 5.96361e-05
2 *69:Z 5.96361e-05
*RES
1 *69:Z t_out[6] 9.468 
*END

*D_NET *13 0.000348317
*CONN
*I *60:I I *D gf180mcu_fd_sc_mcu7t5v0__clkinv_1
*I *59:ZN O *D gf180mcu_fd_sc_mcu7t5v0__aoi21_1
*CAP
1 *60:I 0.000115256
2 *59:ZN 0.000115256
3 *60:I *59:A2 5.13977e-05
4 *60:I *72:I 1.27114e-05
5 *60:I *15:25 3.3698e-05
6 *60:I *20:10 1.99973e-05
*RES
1 *59:ZN *60:I 10.6306 
*END

*D_NET *14 0.00093205
*CONN
*I *63:I I *D gf180mcu_fd_sc_mcu7t5v0__clkinv_1
*I *62:ZN O *D gf180mcu_fd_sc_mcu7t5v0__oai21_1
*CAP
1 *63:I 0.000222877
2 *62:ZN 0.000222877
3 *63:I *62:A1 0.000109233
4 *63:I *62:A2 0.000359205
5 *63:I *75:I 3.25538e-06
6 *63:I *18:22 0
7 *63:I *24:8 1.46033e-05
*RES
1 *62:ZN *63:I 19.6046 
*END

*D_NET *15 0.00626986
*CONN
*I *64:A1 I *D gf180mcu_fd_sc_mcu7t5v0__and2_1
*I *62:A1 I *D gf180mcu_fd_sc_mcu7t5v0__oai21_1
*I *59:A1 I *D gf180mcu_fd_sc_mcu7t5v0__aoi21_1
*I *58:A1 I *D gf180mcu_fd_sc_mcu7t5v0__or2_1
*I *66:Z O *D gf180mcu_fd_sc_mcu7t5v0__clkbuf_1
*CAP
1 *64:A1 0
2 *62:A1 0.000347426
3 *59:A1 0
4 *58:A1 0.000197341
5 *66:Z 0.000472819
6 *15:36 0.00130856
7 *15:25 0.00141828
8 *15:10 0.0011273
9 *58:A1 *58:A2 3.96556e-05
10 *62:A1 *64:A2 9.56301e-05
11 *62:A1 *75:I 3.7384e-05
12 *62:A1 *24:8 1.75593e-05
13 *15:10 *58:A2 8.28947e-05
14 *15:25 *58:A2 2.19962e-05
15 *15:36 *59:A2 3.17817e-05
16 *15:36 *59:B 3.50983e-05
17 *15:36 *64:A2 6.40589e-05
18 *15:36 *69:I 1.78817e-06
19 *15:36 *72:I 3.96072e-05
20 *15:36 *18:22 0
21 t_out[0] *58:A1 0.00033778
22 t_out[1] *15:10 2.80885e-05
23 t_out[1] *15:25 0.000194522
24 t_out[2] *15:36 0.000134833
25 t_out[3] *15:36 4.8809e-05
26 t_out[4] *62:A1 6.57935e-06
27 t_out[5] *62:A1 3.71367e-05
28 *60:I *15:25 3.3698e-05
29 *63:I *62:A1 0.000109233
*RES
1 *66:Z *15:10 16.932 
2 *15:10 *58:A1 6.268 
3 *15:10 *15:25 3.744 
4 *15:25 *59:A1 4.5 
5 *15:25 *15:36 6.76 
6 *15:36 *62:A1 16.204 
7 *15:36 *64:A1 4.5 
*END

*D_NET *16 0.00123129
*CONN
*I *69:I I *D gf180mcu_fd_sc_mcu7t5v0__clkbuf_3
*I *64:Z O *D gf180mcu_fd_sc_mcu7t5v0__and2_1
*CAP
1 *69:I 0.000477143
2 *64:Z 0.000477143
3 *69:I *18:12 0.000212347
4 *69:I *18:22 2.38773e-05
5 t_out[5] *69:I 3.89916e-05
6 *15:36 *69:I 1.78817e-06
*RES
1 *64:Z *69:I 13.16 
*END

*D_NET *17 0.00408389
*CONN
*I *57:A1 I *D gf180mcu_fd_sc_mcu7t5v0__or2_1
*I *61:A1 I *D gf180mcu_fd_sc_mcu7t5v0__and2_1
*I *62:A2 I *D gf180mcu_fd_sc_mcu7t5v0__oai21_1
*I *59:A2 I *D gf180mcu_fd_sc_mcu7t5v0__aoi21_1
*I *67:Z O *D gf180mcu_fd_sc_mcu7t5v0__clkbuf_1
*CAP
1 *57:A1 0
2 *61:A1 2.41092e-05
3 *62:A2 0.000446516
4 *59:A2 0.000429012
5 *67:Z 0
6 *17:31 0.000839169
7 *17:27 0.000690546
8 *17:4 0.000751014
9 *59:A2 *58:A2 0
10 *59:A2 *59:B 4.74296e-05
11 *59:A2 *72:I 3.4596e-05
12 *59:A2 *20:10 9.92103e-06
13 *62:A2 *74:I 0
14 *62:A2 *18:28 1.12327e-05
15 *17:27 *72:I 0
16 *17:27 *18:39 6.53221e-05
17 *17:27 *20:10 7.54092e-05
18 *17:31 *18:28 0.000127144
19 *17:31 *18:39 5.45754e-05
20 *60:I *59:A2 5.13977e-05
21 *63:I *62:A2 0.000359205
22 *67:I *17:27 3.55077e-05
23 *68:I *62:A2 0
24 *15:36 *59:A2 3.17817e-05
*RES
1 *67:Z *17:4 4.5 
2 *17:4 *59:A2 16.1 
3 *17:4 *17:27 2.392 
4 *17:27 *17:31 3.016 
5 *17:31 *62:A2 16.8763 
6 *17:31 *61:A1 4.708 
7 *17:27 *57:A1 4.5 
*END

*D_NET *18 0.00655869
*CONN
*I *62:B I *D gf180mcu_fd_sc_mcu7t5v0__oai21_1
*I *61:A2 I *D gf180mcu_fd_sc_mcu7t5v0__and2_1
*I *57:A2 I *D gf180mcu_fd_sc_mcu7t5v0__or2_1
*I *59:B I *D gf180mcu_fd_sc_mcu7t5v0__aoi21_1
*I *65:I I *D gf180mcu_fd_sc_mcu7t5v0__clkbuf_1
*I *68:Z O *D gf180mcu_fd_sc_mcu7t5v0__clkbuf_1
*CAP
1 *62:B 0
2 *61:A2 0
3 *57:A2 0
4 *59:B 0.000751691
5 *65:I 0
6 *68:Z 0.000434815
7 *18:39 0.00102096
8 *18:28 0.000526549
9 *18:22 0.00078339
10 *18:12 0.000960928
11 *18:12 *75:I 0.000550736
12 *18:22 *64:A2 1.97176e-05
13 *18:22 *74:I 1.0204e-05
14 *18:22 *75:I 0.000406983
15 *18:22 *24:8 0.000136842
16 *18:28 *74:I 2.81522e-06
17 *18:39 *72:I 6.8199e-07
18 t_out[2] *59:B 0.000341337
19 t_out[3] *59:B 4.17589e-06
20 *59:A2 *59:B 4.74296e-05
21 *62:A2 *18:28 1.12327e-05
22 *63:I *18:22 0
23 *68:I *18:12 2.98389e-05
24 *69:I *18:12 0.000212347
25 *69:I *18:22 2.38773e-05
26 *15:36 *59:B 3.50983e-05
27 *15:36 *18:22 0
28 *17:27 *18:39 6.53221e-05
29 *17:31 *18:28 0.000127144
30 *17:31 *18:39 5.45754e-05
*RES
1 *68:Z *18:12 9.076 
2 *18:12 *18:22 12.64 
3 *18:22 *18:28 1.976 
4 *18:28 *65:I 4.5 
5 *18:28 *18:39 2.392 
6 *18:39 *59:B 18.284 
7 *18:39 *57:A2 4.5 
8 *18:22 *61:A2 4.5 
9 *18:12 *62:B 4.5 
*END

*D_NET *19 0.00054351
*CONN
*I *70:I I *D gf180mcu_fd_sc_mcu7t5v0__clkbuf_3
*I *58:Z O *D gf180mcu_fd_sc_mcu7t5v0__or2_1
*CAP
1 *70:I 0.000244467
2 *58:Z 0.000244467
3 *70:I *58:A2 5.45754e-05
4 *66:I *70:I 0
*RES
1 *58:Z *70:I 10.872 
*END

*D_NET *20 0.00253111
*CONN
*I *71:I I *D gf180mcu_fd_sc_mcu7t5v0__clkbuf_3
*I *58:A2 I *D gf180mcu_fd_sc_mcu7t5v0__or2_1
*I *57:Z O *D gf180mcu_fd_sc_mcu7t5v0__or2_1
*CAP
1 *71:I 0
2 *58:A2 0.000557557
3 *57:Z 0.000470219
4 *20:10 0.00102778
5 *20:10 *72:I 2.32529e-05
6 t_out[0] *58:A2 8.14679e-05
7 t_out[1] *58:A2 4.63309e-05
8 *58:A1 *58:A2 3.96556e-05
9 *59:A2 *58:A2 0
10 *59:A2 *20:10 9.92103e-06
11 *60:I *20:10 1.99973e-05
12 *67:I *20:10 2.00565e-05
13 *70:I *58:A2 5.45754e-05
14 *15:10 *58:A2 8.28947e-05
15 *15:25 *58:A2 2.19962e-05
16 *17:27 *20:10 7.54092e-05
*RES
1 *57:Z *20:10 7.932 
2 *20:10 *58:A2 18.076 
3 *20:10 *71:I 4.5 
*END

*D_NET *21 0.000557454
*CONN
*I *72:I I *D gf180mcu_fd_sc_mcu7t5v0__clkbuf_3
*I *60:ZN O *D gf180mcu_fd_sc_mcu7t5v0__clkinv_1
*CAP
1 *72:I 0.000223302
2 *60:ZN 0.000223302
3 *59:A2 *72:I 3.4596e-05
4 *60:I *72:I 1.27114e-05
5 *15:36 *72:I 3.96072e-05
6 *17:27 *72:I 0
7 *18:39 *72:I 6.8199e-07
8 *20:10 *72:I 2.32529e-05
*RES
1 *60:ZN *72:I 10.56 
*END

*D_NET *22 0.000210203
*CONN
*I *73:I I *D gf180mcu_fd_sc_mcu7t5v0__clkbuf_3
*I *65:Z O *D gf180mcu_fd_sc_mcu7t5v0__clkbuf_1
*CAP
1 *73:I 0.000105102
2 *65:Z 0.000105102
*RES
1 *65:Z *73:I 9.728 
*END

*D_NET *23 0.000750064
*CONN
*I *74:I I *D gf180mcu_fd_sc_mcu7t5v0__clkbuf_3
*I *63:ZN O *D gf180mcu_fd_sc_mcu7t5v0__clkinv_1
*CAP
1 *74:I 0.000357845
2 *63:ZN 0.000357845
3 *74:I *75:I 2.13547e-05
4 *62:A2 *74:I 0
5 *18:22 *74:I 1.0204e-05
6 *18:28 *74:I 2.81522e-06
*RES
1 *63:ZN *74:I 11.392 
*END

*D_NET *24 0.00270252
*CONN
*I *64:A2 I *D gf180mcu_fd_sc_mcu7t5v0__and2_1
*I *75:I I *D gf180mcu_fd_sc_mcu7t5v0__clkbuf_3
*I *61:Z O *D gf180mcu_fd_sc_mcu7t5v0__and2_1
*CAP
1 *64:A2 0.000284935
2 *75:I 0.000219794
3 *61:Z 0.00016247
4 *24:8 0.000667199
5 *62:A1 *64:A2 9.56301e-05
6 *62:A1 *75:I 3.7384e-05
7 *62:A1 *24:8 1.75593e-05
8 *63:I *75:I 3.25538e-06
9 *63:I *24:8 1.46033e-05
10 *74:I *75:I 2.13547e-05
11 *15:36 *64:A2 6.40589e-05
12 *18:12 *75:I 0.000550736
13 *18:22 *64:A2 1.97176e-05
14 *18:22 *75:I 0.000406983
15 *18:22 *24:8 0.000136842
*RES
1 *61:Z *24:8 10.144 
2 *24:8 *75:I 11.6 
3 *24:8 *64:A2 11.184 
*END
