*SPEF "ieee 1481-1999"
*DESIGN "dac_matrix_decoder"
*DATE "15:35:30 Saturday April 20, 2024"
*VENDOR "The OpenROAD Project"
*PROGRAM "OpenROAD"
*VERSION "0889970d1790a2617e69f253221b8bd7626e51dc"
*DESIGN_FLOW "NAME_SCOPE LOCAL" "PIN_CAP NONE"
*DIVIDER /
*DELIMITER :
*BUS_DELIMITER []
*T_UNIT 1 NS
*C_UNIT 1 PF
*R_UNIT 1 OHM
*L_UNIT 1 HENRY

*NAME_MAP
*3 b_in[0]
*4 b_in[1]
*5 b_in[2]
*6 t_out[0]
*7 t_out[1]
*8 t_out[2]
*9 t_out[3]
*10 t_out[4]
*11 t_out[5]
*12 t_out[6]
*13 _00_
*14 _01_
*15 net1
*16 net10
*17 net2
*18 net3
*19 net4
*20 net5
*21 net6
*22 net7
*23 net8
*24 net9
*25 FILLER_0_0_10
*26 FILLER_0_0_14
*27 FILLER_0_0_2
*28 FILLER_0_1_8
*29 FILLER_0_2_2
*30 FILLER_0_3_10
*31 FILLER_0_3_23
*32 FILLER_0_3_8
*33 FILLER_0_5_2
*34 FILLER_0_7_2
*35 FILLER_0_8_2
*36 FILLER_0_9_8
*37 PHY_EDGE_ROW_0_Left_10
*38 PHY_EDGE_ROW_0_Right_0
*39 PHY_EDGE_ROW_1_Left_11
*40 PHY_EDGE_ROW_1_Right_1
*41 PHY_EDGE_ROW_2_Left_12
*42 PHY_EDGE_ROW_2_Right_2
*43 PHY_EDGE_ROW_3_Left_13
*44 PHY_EDGE_ROW_3_Right_3
*45 PHY_EDGE_ROW_4_Left_14
*46 PHY_EDGE_ROW_4_Right_4
*47 PHY_EDGE_ROW_5_Left_15
*48 PHY_EDGE_ROW_5_Right_5
*49 PHY_EDGE_ROW_6_Left_16
*50 PHY_EDGE_ROW_6_Right_6
*51 PHY_EDGE_ROW_7_Left_17
*52 PHY_EDGE_ROW_7_Right_7
*53 PHY_EDGE_ROW_8_Left_18
*54 PHY_EDGE_ROW_8_Right_8
*55 PHY_EDGE_ROW_9_Left_19
*56 PHY_EDGE_ROW_9_Right_9
*57 _02_
*58 _03_
*59 _04_
*60 _05_
*61 _06_
*62 _07_
*63 _08_
*64 _09_
*65 _10_
*66 input1
*67 input2
*68 input3
*69 output10
*70 output4
*71 output5
*72 output6
*73 output7
*74 output8
*75 output9

*PORTS
b_in[0] I
b_in[1] I
b_in[2] I
t_out[0] O
t_out[1] O
t_out[2] O
t_out[3] O
t_out[4] O
t_out[5] O
t_out[6] O

*D_NET *3 0.000175342
*CONN
*P b_in[0] I
*I *66:I I *D gf180mcu_fd_sc_mcu7t5v0__clkbuf_1
*CAP
1 b_in[0] 8.76712e-05
2 *66:I 8.76712e-05
3 *66:I *70:I 0
*RES
1 b_in[0] *66:I 9.418 
*END

*D_NET *4 0.000971212
*CONN
*P b_in[1] I
*I *67:I I *D gf180mcu_fd_sc_mcu7t5v0__clkbuf_1
*CAP
1 b_in[1] 0.000459339
2 *67:I 0.000459339
3 *67:I *17:27 3.24552e-05
4 *67:I *20:10 2.00784e-05
*RES
1 b_in[1] *67:I 11.242 
*END

*D_NET *5 0.000494438
*CONN
*P b_in[2] I
*I *68:I I *D gf180mcu_fd_sc_mcu7t5v0__clkbuf_1
*CAP
1 b_in[2] 0.000232292
2 *68:I 0.000232292
3 *68:I *62:A2 0
4 *68:I *18:12 2.98535e-05
*RES
1 b_in[2] *68:I 10.482 
*END

*D_NET *6 0.000550867
*CONN
*P t_out[0] O
*I *70:Z O *D gf180mcu_fd_sc_mcu7t5v0__clkbuf_3
*CAP
1 t_out[0] 0.000109911
2 *70:Z 0.000109911
3 t_out[0] t_out[1] 0
4 t_out[0] *58:A1 0.000255722
5 t_out[0] *58:A2 7.53241e-05
*RES
1 *70:Z t_out[0] 10.026 
*END

*D_NET *7 0.000361684
*CONN
*P t_out[1] O
*I *71:Z O *D gf180mcu_fd_sc_mcu7t5v0__clkbuf_3
*CAP
1 t_out[1] 7.28243e-05
2 *71:Z 7.28243e-05
3 t_out[1] t_out[2] 0
4 t_out[1] *58:A2 4.27813e-05
5 t_out[1] *15:10 2.59409e-05
6 t_out[1] *15:25 0.000147313
7 t_out[0] t_out[1] 0
*RES
1 *71:Z t_out[1] 9.722 
*END

*D_NET *8 0.000625979
*CONN
*P t_out[2] O
*I *72:Z O *D gf180mcu_fd_sc_mcu7t5v0__clkbuf_3
*CAP
1 t_out[2] 0.000123334
2 *72:Z 0.000123334
3 t_out[2] t_out[3] 0
4 t_out[2] *59:B 0.000259761
5 t_out[2] *15:36 0.00011955
6 t_out[1] t_out[2] 0
*RES
1 *72:Z t_out[2] 10.178 
*END

*D_NET *9 0.000264392
*CONN
*P t_out[3] O
*I *73:Z O *D gf180mcu_fd_sc_mcu7t5v0__clkbuf_3
*CAP
1 t_out[3] 0.000107588
2 *73:Z 0.000107588
3 t_out[3] t_out[4] 0
4 t_out[3] *59:B 4.29636e-06
5 t_out[3] *15:36 4.49202e-05
6 t_out[2] t_out[3] 0
*RES
1 *73:Z t_out[3] 9.722 
*END

*D_NET *10 0.00013557
*CONN
*P t_out[4] O
*I *74:Z O *D gf180mcu_fd_sc_mcu7t5v0__clkbuf_3
*CAP
1 t_out[4] 6.45451e-05
2 *74:Z 6.45451e-05
3 t_out[4] t_out[5] 0
4 t_out[4] *62:A1 6.47993e-06
5 t_out[3] t_out[4] 0
*RES
1 *74:Z t_out[4] 9.342 
*END

*D_NET *11 0.000341484
*CONN
*P t_out[5] O
*I *75:Z O *D gf180mcu_fd_sc_mcu7t5v0__clkbuf_3
*CAP
1 t_out[5] 0.000135217
2 *75:Z 0.000135217
3 t_out[5] *62:A1 3.4631e-05
4 t_out[5] *69:I 3.64183e-05
5 t_out[4] t_out[5] 0
*RES
1 *75:Z t_out[5] 9.874 
*END

*D_NET *12 0.000105773
*CONN
*P t_out[6] O
*I *69:Z O *D gf180mcu_fd_sc_mcu7t5v0__clkbuf_3
*CAP
1 t_out[6] 5.28864e-05
2 *69:Z 5.28864e-05
*RES
1 *69:Z t_out[6] 9.342 
*END

*D_NET *13 0.000308381
*CONN
*I *60:I I *D gf180mcu_fd_sc_mcu7t5v0__clkinv_1
*I *59:ZN O *D gf180mcu_fd_sc_mcu7t5v0__aoi21_1
*CAP
1 *60:I 0.000101121
2 *59:ZN 0.000101121
3 *60:I *59:A2 4.50449e-05
4 *60:I *72:I 1.17627e-05
5 *60:I *15:25 3.07734e-05
6 *60:I *20:10 1.85586e-05
*RES
1 *59:ZN *60:I 10.1916 
*END

*D_NET *14 0.000715605
*CONN
*I *63:I I *D gf180mcu_fd_sc_mcu7t5v0__clkinv_1
*I *62:ZN O *D gf180mcu_fd_sc_mcu7t5v0__oai21_1
*CAP
1 *63:I 0.00017146
2 *62:ZN 0.00017146
3 *63:I *62:A1 8.25105e-05
4 *63:I *62:A2 0.000272333
5 *63:I *75:I 3.04758e-06
6 *63:I *18:22 0
7 *63:I *24:8 1.47933e-05
*RES
1 *62:ZN *63:I 19.1726 
*END

*D_NET *15 0.00513635
*CONN
*I *64:A1 I *D gf180mcu_fd_sc_mcu7t5v0__and2_1
*I *62:A1 I *D gf180mcu_fd_sc_mcu7t5v0__oai21_1
*I *59:A1 I *D gf180mcu_fd_sc_mcu7t5v0__aoi21_1
*I *58:A1 I *D gf180mcu_fd_sc_mcu7t5v0__or2_1
*I *66:Z O *D gf180mcu_fd_sc_mcu7t5v0__clkbuf_1
*CAP
1 *64:A1 0
2 *62:A1 0.000272634
3 *59:A1 0
4 *58:A1 0.000159395
5 *66:Z 0.000389149
6 *15:36 0.00104297
7 *15:25 0.0011515
8 *15:10 0.000929709
9 *58:A1 *58:A2 3.6994e-05
10 *62:A1 *64:A2 9.02111e-05
11 *62:A1 *75:I 3.38043e-05
12 *62:A1 *24:8 1.84551e-05
13 *15:10 *58:A2 7.81999e-05
14 *15:25 *58:A2 2.21553e-05
15 *15:36 *59:A2 2.97523e-05
16 *15:36 *59:B 3.25235e-05
17 *15:36 *64:A2 5.96835e-05
18 *15:36 *69:I 1.91917e-06
19 *15:36 *72:I 3.94624e-05
20 *15:36 *18:22 0
21 t_out[0] *58:A1 0.000255722
22 t_out[1] *15:10 2.59409e-05
23 t_out[1] *15:25 0.000147313
24 t_out[2] *15:36 0.00011955
25 t_out[3] *15:36 4.49202e-05
26 t_out[4] *62:A1 6.47993e-06
27 t_out[5] *62:A1 3.4631e-05
28 *60:I *15:25 3.07734e-05
29 *63:I *62:A1 8.25105e-05
*RES
1 *66:Z *15:10 16.008 
2 *15:10 *58:A1 5.792 
3 *15:10 *15:25 2.736 
4 *15:25 *59:A1 4.5 
5 *15:25 *15:36 4.94 
6 *15:36 *62:A1 15.476 
7 *15:36 *64:A1 4.5 
*END

*D_NET *16 0.00105434
*CONN
*I *69:I I *D gf180mcu_fd_sc_mcu7t5v0__clkbuf_3
*I *64:Z O *D gf180mcu_fd_sc_mcu7t5v0__and2_1
*CAP
1 *69:I 0.000399266
2 *64:Z 0.000399266
3 *69:I *18:12 0.000195193
4 *69:I *18:22 2.22758e-05
5 t_out[5] *69:I 3.64183e-05
6 *15:36 *69:I 1.91917e-06
*RES
1 *64:Z *69:I 12.04 
*END

*D_NET *17 0.00333221
*CONN
*I *57:A1 I *D gf180mcu_fd_sc_mcu7t5v0__or2_1
*I *61:A1 I *D gf180mcu_fd_sc_mcu7t5v0__and2_1
*I *62:A2 I *D gf180mcu_fd_sc_mcu7t5v0__oai21_1
*I *59:A2 I *D gf180mcu_fd_sc_mcu7t5v0__aoi21_1
*I *67:Z O *D gf180mcu_fd_sc_mcu7t5v0__clkbuf_1
*CAP
1 *57:A1 0
2 *61:A1 2.14952e-05
3 *62:A2 0.000368812
4 *59:A2 0.000332934
5 *67:Z 0
6 *17:31 0.000691662
7 *17:27 0.000555637
8 *17:4 0.000587216
9 *59:A2 *58:A2 0
10 *59:A2 *59:B 4.94542e-05
11 *59:A2 *72:I 2.6126e-05
12 *59:A2 *20:10 9.3697e-06
13 *62:A2 *74:I 0
14 *62:A2 *18:28 1.02578e-05
15 *17:27 *72:I 0
16 *17:27 *18:39 5.92613e-05
17 *17:27 *20:10 6.98246e-05
18 *17:31 *18:28 0.000117666
19 *17:31 *18:39 5.29084e-05
20 *60:I *59:A2 4.50449e-05
21 *63:I *62:A2 0.000272333
22 *67:I *17:27 3.24552e-05
23 *68:I *62:A2 0
24 *15:36 *59:A2 2.97523e-05
*RES
1 *67:Z *17:4 4.5 
2 *17:4 *59:A2 15.4 
3 *17:4 *17:27 1.748 
4 *17:27 *17:31 2.204 
5 *17:31 *62:A2 15.9673 
6 *17:31 *61:A1 4.652 
7 *17:27 *57:A1 4.5 
*END

*D_NET *18 0.00529306
*CONN
*I *62:B I *D gf180mcu_fd_sc_mcu7t5v0__oai21_1
*I *61:A2 I *D gf180mcu_fd_sc_mcu7t5v0__and2_1
*I *57:A2 I *D gf180mcu_fd_sc_mcu7t5v0__or2_1
*I *59:B I *D gf180mcu_fd_sc_mcu7t5v0__aoi21_1
*I *65:I I *D gf180mcu_fd_sc_mcu7t5v0__clkbuf_1
*I *68:Z O *D gf180mcu_fd_sc_mcu7t5v0__clkbuf_1
*CAP
1 *62:B 0
2 *61:A2 0
3 *57:A2 0
4 *59:B 0.00059545
5 *65:I 0
6 *68:Z 0.000360844
7 *18:39 0.000818506
8 *18:28 0.000426075
9 *18:22 0.000608374
10 *18:12 0.000766198
11 *18:12 *75:I 0.000417311
12 *18:22 *64:A2 2.0626e-05
13 *18:22 *74:I 1.06951e-05
14 *18:22 *75:I 0.000307983
15 *18:22 *24:8 0.000123859
16 *18:28 *74:I 2.9378e-06
17 *18:39 *72:I 7.45328e-07
18 t_out[2] *59:B 0.000259761
19 t_out[3] *59:B 4.29636e-06
20 *59:A2 *59:B 4.94542e-05
21 *62:A2 *18:28 1.02578e-05
22 *63:I *18:22 0
23 *68:I *18:12 2.98535e-05
24 *69:I *18:12 0.000195193
25 *69:I *18:22 2.22758e-05
26 *15:36 *59:B 3.25235e-05
27 *15:36 *18:22 0
28 *17:27 *18:39 5.92613e-05
29 *17:31 *18:28 0.000117666
30 *17:31 *18:39 5.29084e-05
*RES
1 *68:Z *18:12 7.844 
2 *18:12 *18:22 11.66 
3 *18:22 *18:28 1.444 
4 *18:28 *65:I 4.5 
5 *18:28 *18:39 1.748 
6 *18:39 *59:B 16.996 
7 *18:39 *57:A2 4.5 
8 *18:22 *61:A2 4.5 
9 *18:12 *62:B 4.5 
*END

*D_NET *19 0.000462497
*CONN
*I *70:I I *D gf180mcu_fd_sc_mcu7t5v0__clkbuf_3
*I *58:Z O *D gf180mcu_fd_sc_mcu7t5v0__or2_1
*CAP
1 *70:I 0.000204794
2 *58:Z 0.000204794
3 *70:I *58:A2 5.29084e-05
4 *66:I *70:I 0
*RES
1 *58:Z *70:I 10.368 
*END

*D_NET *20 0.00211191
*CONN
*I *71:I I *D gf180mcu_fd_sc_mcu7t5v0__clkbuf_3
*I *58:A2 I *D gf180mcu_fd_sc_mcu7t5v0__or2_1
*I *57:Z O *D gf180mcu_fd_sc_mcu7t5v0__or2_1
*CAP
1 *71:I 0
2 *58:A2 0.0004487
3 *57:Z 0.000382113
4 *20:10 0.000830813
5 *20:10 *72:I 2.40935e-05
6 t_out[0] *58:A2 7.53241e-05
7 t_out[1] *58:A2 4.27813e-05
8 *58:A1 *58:A2 3.6994e-05
9 *59:A2 *58:A2 0
10 *59:A2 *20:10 9.3697e-06
11 *60:I *20:10 1.85586e-05
12 *67:I *20:10 2.00784e-05
13 *70:I *58:A2 5.29084e-05
14 *15:10 *58:A2 7.81999e-05
15 *15:25 *58:A2 2.21553e-05
16 *17:27 *20:10 6.98246e-05
*RES
1 *57:Z *20:10 7.008 
2 *20:10 *58:A2 16.844 
3 *20:10 *71:I 4.5 
*END

*D_NET *21 0.000454794
*CONN
*I *72:I I *D gf180mcu_fd_sc_mcu7t5v0__clkbuf_3
*I *60:ZN O *D gf180mcu_fd_sc_mcu7t5v0__clkinv_1
*CAP
1 *72:I 0.000176302
2 *60:ZN 0.000176302
3 *59:A2 *72:I 2.6126e-05
4 *60:I *72:I 1.17627e-05
5 *15:36 *72:I 3.94624e-05
6 *17:27 *72:I 0
7 *18:39 *72:I 7.45328e-07
8 *20:10 *72:I 2.40935e-05
*RES
1 *60:ZN *72:I 10.14 
*END

*D_NET *22 0.000182211
*CONN
*I *73:I I *D gf180mcu_fd_sc_mcu7t5v0__clkbuf_3
*I *65:Z O *D gf180mcu_fd_sc_mcu7t5v0__clkbuf_1
*CAP
1 *73:I 9.11056e-05
2 *65:Z 9.11056e-05
*RES
1 *65:Z *73:I 9.532 
*END

*D_NET *23 0.000624691
*CONN
*I *74:I I *D gf180mcu_fd_sc_mcu7t5v0__clkbuf_3
*I *63:ZN O *D gf180mcu_fd_sc_mcu7t5v0__clkinv_1
*CAP
1 *74:I 0.000294307
2 *63:ZN 0.000294307
3 *74:I *75:I 2.24437e-05
4 *62:A2 *74:I 0
5 *18:22 *74:I 1.06951e-05
6 *18:28 *74:I 2.9378e-06
*RES
1 *63:ZN *74:I 10.748 
*END

*D_NET *24 0.00212592
*CONN
*I *64:A2 I *D gf180mcu_fd_sc_mcu7t5v0__and2_1
*I *75:I I *D gf180mcu_fd_sc_mcu7t5v0__clkbuf_3
*I *61:Z O *D gf180mcu_fd_sc_mcu7t5v0__and2_1
*CAP
1 *64:A2 0.000222436
2 *75:I 0.000169175
3 *61:Z 0.000115243
4 *24:8 0.000506853
5 *62:A1 *64:A2 9.02111e-05
6 *62:A1 *75:I 3.38043e-05
7 *62:A1 *24:8 1.84551e-05
8 *63:I *75:I 3.04758e-06
9 *63:I *24:8 1.47933e-05
10 *74:I *75:I 2.24437e-05
11 *15:36 *64:A2 5.96835e-05
12 *18:12 *75:I 0.000417311
13 *18:22 *64:A2 2.0626e-05
14 *18:22 *75:I 0.000307983
15 *18:22 *24:8 0.000123859
*RES
1 *61:Z *24:8 9.836 
2 *24:8 *75:I 10.9 
3 *24:8 *64:A2 10.596 
*END
