* NGSPICE file created from sar.ext - technology: gf180mcuD

.subckt gf180mcu_fd_sc_mcu7t5v0__dffq_1 VDD Q CLK VSS D VNW VPW
X0 VSS CLK a_36_151# VPW nfet_06v0 ad=0.1053p pd=0.925u as=0.1782p ps=1.69u w=0.405u l=0.6u
X1 Q a_2304_115# VSS VPW nfet_06v0 ad=0.3608p pd=2.52u as=0.3608p ps=2.52u w=0.82u l=0.6u
X2 a_2304_115# a_2011_527# VSS VPW nfet_06v0 ad=0.176p pd=1.68u as=0.142p ps=1.14u w=0.4u l=0.6u
X3 a_1004_159# D a_836_159# VPW nfet_06v0 ad=0.207p pd=1.51u as=43.199997f ps=0.6u w=0.36u l=0.6u
X4 a_1004_159# D a_880_527# VNW pfet_06v0 ad=0.1872p pd=1.4u as=53.999996f ps=0.66u w=0.36u l=0.5u
X5 a_2011_527# a_36_151# a_1376_115# VNW pfet_06v0 ad=0.1665p pd=1.285u as=0.1791p ps=1.355u w=0.36u l=0.5u
X6 a_2296_527# a_448_472# a_2011_527# VNW pfet_06v0 ad=50.399998f pd=0.64u as=0.1665p ps=1.285u w=0.36u l=0.5u
X7 a_1376_115# a_1004_159# VDD VNW pfet_06v0 ad=0.1791p pd=1.355u as=0.1044p ps=0.94u w=0.36u l=0.5u
X8 VDD CLK a_36_151# VNW pfet_06v0 ad=0.2249p pd=1.385u as=0.3806p ps=2.61u w=0.865u l=0.5u
X9 VSS a_1376_115# a_1328_159# VPW nfet_06v0 ad=0.2637p pd=1.825u as=43.199997f ps=0.6u w=0.36u l=0.6u
X10 a_2011_527# a_448_472# a_1376_115# VPW nfet_06v0 ad=93.59999f pd=0.88u as=93.59999f ps=0.88u w=0.36u l=0.6u
X11 a_448_472# a_36_151# VDD VNW pfet_06v0 ad=0.3806p pd=2.61u as=0.2249p ps=1.385u w=0.865u l=0.5u
X12 Q a_2304_115# VDD VNW pfet_06v0 ad=0.5368p pd=3.32u as=0.5368p ps=3.32u w=1.22u l=0.5u
X13 a_1376_115# a_1004_159# VSS VPW nfet_06v0 ad=93.59999f pd=0.88u as=0.2637p ps=1.825u w=0.36u l=0.6u
X14 VSS a_2304_115# a_2256_159# VPW nfet_06v0 ad=0.142p pd=1.14u as=43.199997f ps=0.6u w=0.36u l=0.6u
X15 a_836_159# a_36_151# VSS VPW nfet_06v0 ad=43.199997f pd=0.6u as=0.1584p ps=1.6u w=0.36u l=0.6u
X16 a_448_472# a_36_151# VSS VPW nfet_06v0 ad=0.1782p pd=1.69u as=0.1053p ps=0.925u w=0.405u l=0.6u
X17 a_2256_159# a_36_151# a_2011_527# VPW nfet_06v0 ad=43.199997f pd=0.6u as=93.59999f ps=0.88u w=0.36u l=0.6u
X18 a_880_527# a_448_472# VDD VNW pfet_06v0 ad=53.999996f pd=0.66u as=0.4554p ps=3.25u w=0.36u l=0.5u
X19 a_1348_527# a_36_151# a_1004_159# VNW pfet_06v0 ad=43.199997f pd=0.6u as=0.1872p ps=1.4u w=0.36u l=0.5u
X20 a_1328_159# a_448_472# a_1004_159# VPW nfet_06v0 ad=43.199997f pd=0.6u as=0.207p ps=1.51u w=0.36u l=0.6u
X21 VDD a_1376_115# a_1348_527# VNW pfet_06v0 ad=0.1044p pd=0.94u as=43.199997f ps=0.6u w=0.36u l=0.5u
X22 VDD a_2304_115# a_2296_527# VNW pfet_06v0 ad=0.23p pd=1.54u as=50.399998f ps=0.64u w=0.36u l=0.5u
X23 a_2304_115# a_2011_527# VDD VNW pfet_06v0 ad=0.352p pd=2.48u as=0.23p ps=1.54u w=0.8u l=0.5u
.ends

.subckt gf180mcu_fd_sc_mcu7t5v0__nand4_4 A3 A4 VDD VSS ZN A1 A2 VNW VPW
X0 ZN A2 VDD VNW pfet_06v0 ad=0.2197p pd=1.365u as=0.2197p ps=1.365u w=0.845u l=0.5u
X1 VDD A1 ZN VNW pfet_06v0 ad=0.4056p pd=1.805u as=0.2197p ps=1.365u w=0.845u l=0.5u
X2 ZN A3 VDD VNW pfet_06v0 ad=0.2197p pd=1.365u as=0.3718p ps=2.57u w=0.845u l=0.5u
X3 a_244_68# A3 a_36_68# VPW nfet_06v0 ad=0.1312p pd=1.14u as=0.3608p ps=2.52u w=0.82u l=0.6u
X4 VSS A4 a_244_68# VPW nfet_06v0 ad=0.2132p pd=1.34u as=0.1312p ps=1.14u w=0.82u l=0.6u
X5 a_1468_68# A4 VSS VPW nfet_06v0 ad=0.1517p pd=1.19u as=0.2132p ps=1.34u w=0.82u l=0.6u
X6 VDD A4 ZN VNW pfet_06v0 ad=0.2197p pd=1.365u as=0.2197p ps=1.365u w=0.845u l=0.5u
X7 a_1866_68# A2 a_1662_68# VPW nfet_06v0 ad=0.1517p pd=1.19u as=0.1722p ps=1.24u w=0.82u l=0.6u
X8 ZN A4 VDD VNW pfet_06v0 ad=0.2197p pd=1.365u as=0.2197p ps=1.365u w=0.845u l=0.5u
X9 ZN A1 VDD VNW pfet_06v0 ad=0.2197p pd=1.365u as=0.4056p ps=1.805u w=0.845u l=0.5u
X10 a_3276_68# A1 ZN VPW nfet_06v0 ad=0.1312p pd=1.14u as=0.4161p ps=1.905u w=0.82u l=0.6u
X11 a_652_68# A4 VSS VPW nfet_06v0 ad=0.1312p pd=1.14u as=0.2132p ps=1.34u w=0.82u l=0.6u
X12 a_36_68# A3 a_652_68# VPW nfet_06v0 ad=0.2132p pd=1.34u as=0.1312p ps=1.14u w=0.82u l=0.6u
X13 VDD A2 ZN VNW pfet_06v0 ad=0.3718p pd=2.57u as=0.2197p ps=1.365u w=0.845u l=0.5u
X14 VDD A3 ZN VNW pfet_06v0 ad=0.2197p pd=1.365u as=0.2197p ps=1.365u w=0.845u l=0.5u
X15 VSS A4 a_1060_68# VPW nfet_06v0 ad=0.2132p pd=1.34u as=0.1312p ps=1.14u w=0.82u l=0.6u
X16 ZN A3 VDD VNW pfet_06v0 ad=0.2197p pd=1.365u as=0.2197p ps=1.365u w=0.845u l=0.5u
X17 a_2372_68# A1 ZN VPW nfet_06v0 ad=0.1312p pd=1.14u as=0.4161p ps=1.905u w=0.82u l=0.6u
X18 a_36_68# A2 a_2372_68# VPW nfet_06v0 ad=0.2132p pd=1.34u as=0.1312p ps=1.14u w=0.82u l=0.6u
X19 ZN A1 VDD VNW pfet_06v0 ad=0.2197p pd=1.365u as=0.4056p ps=1.805u w=0.845u l=0.5u
X20 a_1060_68# A3 a_36_68# VPW nfet_06v0 ad=0.1312p pd=1.14u as=0.2132p ps=1.34u w=0.82u l=0.6u
X21 VDD A2 ZN VNW pfet_06v0 ad=0.2197p pd=1.365u as=0.2197p ps=1.365u w=0.845u l=0.5u
X22 VDD A4 ZN VNW pfet_06v0 ad=0.2197p pd=1.365u as=0.2197p ps=1.365u w=0.845u l=0.5u
X23 ZN A2 VDD VNW pfet_06v0 ad=0.2197p pd=1.365u as=0.2197p ps=1.365u w=0.845u l=0.5u
X24 ZN A1 a_2780_68# VPW nfet_06v0 ad=0.4161p pd=1.905u as=0.1312p ps=1.14u w=0.82u l=0.6u
X25 a_2780_68# A2 a_36_68# VPW nfet_06v0 ad=0.1312p pd=1.14u as=0.2132p ps=1.34u w=0.82u l=0.6u
X26 ZN A4 VDD VNW pfet_06v0 ad=0.2197p pd=1.365u as=0.2197p ps=1.365u w=0.845u l=0.5u
X27 VDD A1 ZN VNW pfet_06v0 ad=0.4056p pd=1.805u as=0.2197p ps=1.365u w=0.845u l=0.5u
X28 a_36_68# A2 a_3276_68# VPW nfet_06v0 ad=0.3608p pd=2.52u as=0.1312p ps=1.14u w=0.82u l=0.6u
X29 VDD A3 ZN VNW pfet_06v0 ad=0.2197p pd=1.365u as=0.2197p ps=1.365u w=0.845u l=0.5u
X30 a_1662_68# A3 a_1468_68# VPW nfet_06v0 ad=0.1722p pd=1.24u as=0.1517p ps=1.19u w=0.82u l=0.6u
X31 ZN A1 a_1866_68# VPW nfet_06v0 ad=0.4161p pd=1.905u as=0.1517p ps=1.19u w=0.82u l=0.6u
.ends

.subckt gf180mcu_fd_sc_mcu7t5v0__fillcap_16 VDD VSS VNW VPW
X0 VDD a_572_375# a_484_472# VNW pfet_06v0 ad=0.5368p pd=3.32u as=0.5368p ps=3.32u w=1.22u l=1u
X1 a_572_375# a_484_472# VSS VPW nfet_06v0 ad=0.3608p pd=2.52u as=0.3608p ps=2.52u w=0.82u l=1u
X2 a_124_375# a_36_472# VSS VPW nfet_06v0 ad=0.3608p pd=2.52u as=0.3608p ps=2.52u w=0.82u l=1u
X3 a_1468_375# a_1380_472# VSS VPW nfet_06v0 ad=0.3608p pd=2.52u as=0.3608p ps=2.52u w=0.82u l=1u
X4 VDD a_1020_375# a_932_472# VNW pfet_06v0 ad=0.5368p pd=3.32u as=0.5368p ps=3.32u w=1.22u l=1u
X5 VDD a_1468_375# a_1380_472# VNW pfet_06v0 ad=0.5368p pd=3.32u as=0.5368p ps=3.32u w=1.22u l=1u
X6 VDD a_124_375# a_36_472# VNW pfet_06v0 ad=0.5368p pd=3.32u as=0.5368p ps=3.32u w=1.22u l=1u
X7 a_1020_375# a_932_472# VSS VPW nfet_06v0 ad=0.3608p pd=2.52u as=0.3608p ps=2.52u w=0.82u l=1u
.ends

.subckt gf180mcu_fd_sc_mcu7t5v0__nor2_1 VDD VSS ZN A1 A2 VNW VPW
X0 ZN A1 a_224_472# VNW pfet_06v0 ad=0.5368p pd=3.32u as=0.4087p ps=1.89u w=1.22u l=0.5u
X1 VSS A1 ZN VPW nfet_06v0 ad=0.2486p pd=2.01u as=0.1469p ps=1.085u w=0.565u l=0.6u
X2 a_224_472# A2 VDD VNW pfet_06v0 ad=0.4087p pd=1.89u as=0.5368p ps=3.32u w=1.22u l=0.5u
X3 ZN A2 VSS VPW nfet_06v0 ad=0.1469p pd=1.085u as=0.2486p ps=2.01u w=0.565u l=0.6u
.ends

.subckt gf180mcu_fd_sc_mcu7t5v0__buf_3 VSS Z I VDD VNW VPW
X0 Z a_36_68# VDD VNW pfet_06v0 ad=0.3782p pd=1.84u as=0.4941p ps=2.03u w=1.22u l=0.5u
X1 VSS I a_36_68# VPW nfet_06v0 ad=0.2911p pd=1.53u as=0.3608p ps=2.52u w=0.82u l=0.6u
X2 Z a_36_68# VDD VNW pfet_06v0 ad=0.5368p pd=3.32u as=0.3782p ps=1.84u w=1.22u l=0.5u
X3 Z a_36_68# VSS VPW nfet_06v0 ad=0.3608p pd=2.52u as=0.2132p ps=1.34u w=0.82u l=0.6u
X4 Z a_36_68# VSS VPW nfet_06v0 ad=0.2132p pd=1.34u as=0.2911p ps=1.53u w=0.82u l=0.6u
X5 VDD I a_36_68# VNW pfet_06v0 ad=0.4941p pd=2.03u as=0.5368p ps=3.32u w=1.22u l=0.5u
X6 VSS a_36_68# Z VPW nfet_06v0 ad=0.2132p pd=1.34u as=0.2132p ps=1.34u w=0.82u l=0.6u
X7 VDD a_36_68# Z VNW pfet_06v0 ad=0.3782p pd=1.84u as=0.3782p ps=1.84u w=1.22u l=0.5u
.ends

.subckt gf180mcu_fd_sc_mcu7t5v0__or2_1 VDD VSS Z A1 A2 VNW VPW
X0 a_255_603# A1 a_67_603# VNW pfet_06v0 ad=0.1469p pd=1.085u as=0.2486p ps=2.01u w=0.565u l=0.5u
X1 Z a_67_603# VSS VPW nfet_06v0 ad=0.3608p pd=2.52u as=0.2288p ps=1.58u w=0.82u l=0.6u
X2 VDD A2 a_255_603# VNW pfet_06v0 ad=0.38705p pd=2.08u as=0.1469p ps=1.085u w=0.565u l=0.5u
X3 VSS A2 a_67_603# VPW nfet_06v0 ad=0.2288p pd=1.58u as=93.59999f ps=0.88u w=0.36u l=0.6u
X4 Z a_67_603# VDD VNW pfet_06v0 ad=0.5368p pd=3.32u as=0.38705p ps=2.08u w=1.22u l=0.5u
X5 a_67_603# A1 VSS VPW nfet_06v0 ad=93.59999f pd=0.88u as=0.1584p ps=1.6u w=0.36u l=0.6u
.ends

.subckt gf180mcu_fd_sc_mcu7t5v0__fillcap_4 VDD VSS VNW VPW
X0 a_124_375# a_36_472# VSS VPW nfet_06v0 ad=0.3608p pd=2.52u as=0.3608p ps=2.52u w=0.82u l=1u
X1 VDD a_124_375# a_36_472# VNW pfet_06v0 ad=0.5368p pd=3.32u as=0.5368p ps=3.32u w=1.22u l=1u
.ends

.subckt gf180mcu_fd_sc_mcu7t5v0__oai21_1 VDD B A2 ZN A1 VSS VNW VPW
X0 VSS B a_36_68# VPW nfet_06v0 ad=0.3608p pd=2.52u as=0.2132p ps=1.34u w=0.82u l=0.6u
X1 ZN A2 a_36_68# VPW nfet_06v0 ad=0.2132p pd=1.34u as=0.3608p ps=2.52u w=0.82u l=0.6u
X2 VDD B ZN VNW pfet_06v0 ad=0.4972p pd=3.14u as=0.4248p ps=1.94u w=1.13u l=0.5u
X3 a_244_472# A2 VDD VNW pfet_06v0 ad=0.3172p pd=1.74u as=0.5978p ps=3.42u w=1.22u l=0.5u
X4 ZN A1 a_244_472# VNW pfet_06v0 ad=0.4248p pd=1.94u as=0.3172p ps=1.74u w=1.22u l=0.5u
X5 a_36_68# A1 ZN VPW nfet_06v0 ad=0.2132p pd=1.34u as=0.2132p ps=1.34u w=0.82u l=0.6u
.ends

.subckt gf180mcu_fd_sc_mcu7t5v0__clkbuf_4 Z VSS VDD I VNW VPW
X0 Z a_224_552# VSS VPW nfet_06v0 ad=0.1183p pd=0.975u as=0.1183p ps=0.975u w=0.455u l=0.6u
X1 VDD a_224_552# Z VNW pfet_06v0 ad=0.3782p pd=1.84u as=0.3782p ps=1.84u w=1.22u l=0.5u
X2 a_224_552# I VDD VNW pfet_06v0 ad=0.2542p pd=1.44u as=0.3608p ps=2.52u w=0.82u l=0.5u
X3 a_224_552# I VSS VPW nfet_06v0 ad=0.2662p pd=2.09u as=0.2662p ps=2.09u w=0.605u l=0.6u
X4 VSS a_224_552# Z VPW nfet_06v0 ad=0.1183p pd=0.975u as=0.1183p ps=0.975u w=0.455u l=0.6u
X5 VDD a_224_552# Z VNW pfet_06v0 ad=0.5368p pd=3.32u as=0.3782p ps=1.84u w=1.22u l=0.5u
X6 VSS a_224_552# Z VPW nfet_06v0 ad=0.2002p pd=1.79u as=0.1183p ps=0.975u w=0.455u l=0.6u
X7 Z a_224_552# VDD VNW pfet_06v0 ad=0.3782p pd=1.84u as=0.428p ps=2.02u w=1.22u l=0.5u
X8 Z a_224_552# VSS VPW nfet_06v0 ad=0.1183p pd=0.975u as=0.2002p ps=1.79u w=0.455u l=0.6u
X9 VDD I a_224_552# VNW pfet_06v0 ad=0.428p pd=2.02u as=0.2542p ps=1.44u w=0.82u l=0.5u
X10 Z a_224_552# VDD VNW pfet_06v0 ad=0.3782p pd=1.84u as=0.3782p ps=1.84u w=1.22u l=0.5u
.ends

.subckt gf180mcu_fd_sc_mcu7t5v0__oai211_1 B C VDD VSS ZN A1 A2 VNW VPW
X0 a_692_68# B a_36_68# VPW nfet_06v0 ad=0.2132p pd=1.34u as=0.2132p ps=1.34u w=0.82u l=0.6u
X1 ZN A2 a_36_68# VPW nfet_06v0 ad=0.2132p pd=1.34u as=0.3608p ps=2.52u w=0.82u l=0.6u
X2 a_244_472# A2 VDD VNW pfet_06v0 ad=0.3172p pd=1.74u as=0.5978p ps=3.42u w=1.22u l=0.5u
X3 VDD B ZN VNW pfet_06v0 ad=0.2561p pd=1.505u as=0.4016p ps=1.94u w=0.985u l=0.5u
X4 ZN A1 a_244_472# VNW pfet_06v0 ad=0.4016p pd=1.94u as=0.3172p ps=1.74u w=1.22u l=0.5u
X5 ZN C VDD VNW pfet_06v0 ad=0.44325p pd=2.87u as=0.2561p ps=1.505u w=0.985u l=0.5u
X6 VSS C a_692_68# VPW nfet_06v0 ad=0.3608p pd=2.52u as=0.2132p ps=1.34u w=0.82u l=0.6u
X7 a_36_68# A1 ZN VPW nfet_06v0 ad=0.2132p pd=1.34u as=0.2132p ps=1.34u w=0.82u l=0.6u
.ends

.subckt gf180mcu_fd_sc_mcu7t5v0__nand2_1 VDD VSS ZN A1 A2 VNW VPW
X0 ZN A2 VDD VNW pfet_06v0 ad=0.2938p pd=1.65u as=0.4972p ps=3.14u w=1.13u l=0.5u
X1 ZN A1 a_245_68# VPW nfet_06v0 ad=0.3608p pd=2.52u as=0.1312p ps=1.14u w=0.82u l=0.6u
X2 VDD A1 ZN VNW pfet_06v0 ad=0.4972p pd=3.14u as=0.2938p ps=1.65u w=1.13u l=0.5u
X3 a_245_68# A2 VSS VPW nfet_06v0 ad=0.1312p pd=1.14u as=0.3608p ps=2.52u w=0.82u l=0.6u
.ends

.subckt gf180mcu_fd_sc_mcu7t5v0__and3_1 A3 VDD VSS Z A1 A2 VNW VPW
X0 Z a_36_148# VDD VNW pfet_06v0 ad=0.5346p pd=3.31u as=0.4268p ps=2.175u w=1.215u l=0.5u
X1 a_428_148# A2 a_244_148# VPW nfet_06v0 ad=79.799995f pd=0.8u as=60.8f ps=0.7u w=0.38u l=0.6u
X2 Z a_36_148# VSS VPW nfet_06v0 ad=0.341p pd=2.43u as=0.2424p ps=1.635u w=0.775u l=0.6u
X3 VSS A3 a_428_148# VPW nfet_06v0 ad=0.2424p pd=1.635u as=79.799995f ps=0.8u w=0.38u l=0.6u
X4 a_244_148# A1 a_36_148# VPW nfet_06v0 ad=60.8f pd=0.7u as=0.1672p ps=1.64u w=0.38u l=0.6u
X5 VDD A1 a_36_148# VNW pfet_06v0 ad=0.1391p pd=1.055u as=0.2354p ps=1.95u w=0.535u l=0.5u
X6 a_36_148# A2 VDD VNW pfet_06v0 ad=0.1391p pd=1.055u as=0.1391p ps=1.055u w=0.535u l=0.5u
X7 VDD A3 a_36_148# VNW pfet_06v0 ad=0.4268p pd=2.175u as=0.1391p ps=1.055u w=0.535u l=0.5u
.ends

.subckt gf180mcu_fd_sc_mcu7t5v0__fillcap_8 VDD VSS VNW VPW
X0 VDD a_572_375# a_484_472# VNW pfet_06v0 ad=0.5368p pd=3.32u as=0.5368p ps=3.32u w=1.22u l=1u
X1 a_572_375# a_484_472# VSS VPW nfet_06v0 ad=0.3608p pd=2.52u as=0.3608p ps=2.52u w=0.82u l=1u
X2 a_124_375# a_36_472# VSS VPW nfet_06v0 ad=0.3608p pd=2.52u as=0.3608p ps=2.52u w=0.82u l=1u
X3 VDD a_124_375# a_36_472# VNW pfet_06v0 ad=0.5368p pd=3.32u as=0.5368p ps=3.32u w=1.22u l=1u
.ends

.subckt gf180mcu_fd_sc_mcu7t5v0__clkbuf_8 Z VSS VDD I VNW VPW
X0 Z a_224_552# VSS VPW nfet_06v0 ad=0.1118p pd=0.95u as=0.1892p ps=1.74u w=0.43u l=0.6u
X1 VSS a_224_552# Z VPW nfet_06v0 ad=0.1118p pd=0.95u as=0.1118p ps=0.95u w=0.43u l=0.6u
X2 VDD a_224_552# Z VNW pfet_06v0 ad=0.3172p pd=1.74u as=0.4392p ps=1.94u w=1.22u l=0.5u
X3 a_224_552# I VDD VNW pfet_06v0 ad=0.2952p pd=1.54u as=0.3608p ps=2.52u w=0.82u l=0.5u
X4 VDD I a_224_552# VNW pfet_06v0 ad=0.2132p pd=1.34u as=0.2952p ps=1.54u w=0.82u l=0.5u
X5 Z a_224_552# VDD VNW pfet_06v0 ad=0.4392p pd=1.94u as=0.3172p ps=1.74u w=1.22u l=0.5u
X6 VDD a_224_552# Z VNW pfet_06v0 ad=0.3172p pd=1.74u as=0.4392p ps=1.94u w=1.22u l=0.5u
X7 VSS I a_224_552# VPW nfet_06v0 ad=0.1053p pd=0.925u as=0.1053p ps=0.925u w=0.405u l=0.6u
X8 a_224_552# I VDD VNW pfet_06v0 ad=0.2952p pd=1.54u as=0.2132p ps=1.34u w=0.82u l=0.5u
X9 VDD a_224_552# Z VNW pfet_06v0 ad=0.3172p pd=1.74u as=0.4392p ps=1.94u w=1.22u l=0.5u
X10 VSS a_224_552# Z VPW nfet_06v0 ad=0.1892p pd=1.74u as=0.1118p ps=0.95u w=0.43u l=0.6u
X11 Z a_224_552# VDD VNW pfet_06v0 ad=0.4392p pd=1.94u as=0.3172p ps=1.74u w=1.22u l=0.5u
X12 Z a_224_552# VSS VPW nfet_06v0 ad=0.1118p pd=0.95u as=0.1118p ps=0.95u w=0.43u l=0.6u
X13 VSS a_224_552# Z VPW nfet_06v0 ad=0.1118p pd=0.95u as=0.1118p ps=0.95u w=0.43u l=0.6u
X14 Z a_224_552# VSS VPW nfet_06v0 ad=0.1118p pd=0.95u as=0.1118p ps=0.95u w=0.43u l=0.6u
X15 Z a_224_552# VDD VNW pfet_06v0 ad=0.4392p pd=1.94u as=0.3172p ps=1.74u w=1.22u l=0.5u
X16 VDD I a_224_552# VNW pfet_06v0 ad=0.367p pd=1.92u as=0.2952p ps=1.54u w=0.82u l=0.5u
X17 VDD a_224_552# Z VNW pfet_06v0 ad=0.5368p pd=3.32u as=0.4392p ps=1.94u w=1.22u l=0.5u
X18 a_224_552# I VSS VPW nfet_06v0 ad=0.1053p pd=0.925u as=0.1782p ps=1.69u w=0.405u l=0.6u
X19 Z a_224_552# VSS VPW nfet_06v0 ad=0.1118p pd=0.95u as=0.1118p ps=0.95u w=0.43u l=0.6u
X20 Z a_224_552# VDD VNW pfet_06v0 ad=0.4392p pd=1.94u as=0.367p ps=1.92u w=1.22u l=0.5u
X21 a_224_552# I VSS VPW nfet_06v0 ad=0.1782p pd=1.69u as=0.1053p ps=0.925u w=0.405u l=0.6u
X22 VSS a_224_552# Z VPW nfet_06v0 ad=0.1118p pd=0.95u as=0.1118p ps=0.95u w=0.43u l=0.6u
.ends

.subckt gf180mcu_fd_sc_mcu7t5v0__clkbuf_16 VDD VSS Z I VNW VPW
X0 VSS I a_224_552# VPW nfet_06v0 ad=0.1053p pd=0.925u as=0.1053p ps=0.925u w=0.405u l=0.6u
X1 VSS a_224_552# Z VPW nfet_06v0 ad=0.1261p pd=1.005u as=0.1261p ps=1.005u w=0.485u l=0.6u
X2 a_224_552# I VDD VNW pfet_06v0 ad=0.2542p pd=1.44u as=0.2542p ps=1.44u w=0.82u l=0.5u
X3 Z a_224_552# VDD VNW pfet_06v0 ad=0.3782p pd=1.84u as=0.3782p ps=1.84u w=1.22u l=0.5u
X4 Z a_224_552# VSS VPW nfet_06v0 ad=0.1261p pd=1.005u as=0.1261p ps=1.005u w=0.485u l=0.6u
X5 VDD a_224_552# Z VNW pfet_06v0 ad=0.3782p pd=1.84u as=0.3782p ps=1.84u w=1.22u l=0.5u
X6 VDD a_224_552# Z VNW pfet_06v0 ad=0.3782p pd=1.84u as=0.3782p ps=1.84u w=1.22u l=0.5u
X7 Z a_224_552# VDD VNW pfet_06v0 ad=0.3782p pd=1.84u as=0.3782p ps=1.84u w=1.22u l=0.5u
X8 a_224_552# I VDD VNW pfet_06v0 ad=0.2542p pd=1.44u as=0.3608p ps=2.52u w=0.82u l=0.5u
X9 VDD a_224_552# Z VNW pfet_06v0 ad=0.3782p pd=1.84u as=0.3782p ps=1.84u w=1.22u l=0.5u
X10 Z a_224_552# VSS VPW nfet_06v0 ad=0.1261p pd=1.005u as=0.1261p ps=1.005u w=0.485u l=0.6u
X11 VSS a_224_552# Z VPW nfet_06v0 ad=0.1261p pd=1.005u as=0.1261p ps=1.005u w=0.485u l=0.6u
X12 VSS a_224_552# Z VPW nfet_06v0 ad=0.1261p pd=1.005u as=0.1261p ps=1.005u w=0.485u l=0.6u
X13 VDD a_224_552# Z VNW pfet_06v0 ad=0.5368p pd=3.32u as=0.3782p ps=1.84u w=1.22u l=0.5u
X14 Z a_224_552# VSS VPW nfet_06v0 ad=0.1261p pd=1.005u as=0.1261p ps=1.005u w=0.485u l=0.6u
X15 VSS I a_224_552# VPW nfet_06v0 ad=0.1053p pd=0.925u as=0.1782p ps=1.69u w=0.405u l=0.6u
X16 a_224_552# I VDD VNW pfet_06v0 ad=0.2542p pd=1.44u as=0.2542p ps=1.44u w=0.82u l=0.5u
X17 a_224_552# I VSS VPW nfet_06v0 ad=0.1053p pd=0.925u as=0.1053p ps=0.925u w=0.405u l=0.6u
X18 VSS a_224_552# Z VPW nfet_06v0 ad=0.1261p pd=1.005u as=0.1261p ps=1.005u w=0.485u l=0.6u
X19 Z a_224_552# VDD VNW pfet_06v0 ad=0.3782p pd=1.84u as=0.428p ps=2.02u w=1.22u l=0.5u
X20 VDD I a_224_552# VNW pfet_06v0 ad=0.2542p pd=1.44u as=0.2542p ps=1.44u w=0.82u l=0.5u
X21 Z a_224_552# VDD VNW pfet_06v0 ad=0.3782p pd=1.84u as=0.3782p ps=1.84u w=1.22u l=0.5u
X22 Z a_224_552# VDD VNW pfet_06v0 ad=0.3782p pd=1.84u as=0.3782p ps=1.84u w=1.22u l=0.5u
X23 VSS I a_224_552# VPW nfet_06v0 ad=0.1053p pd=0.925u as=0.1053p ps=0.925u w=0.405u l=0.6u
X24 VDD a_224_552# Z VNW pfet_06v0 ad=0.3782p pd=1.84u as=0.3782p ps=1.84u w=1.22u l=0.5u
X25 Z a_224_552# VSS VPW nfet_06v0 ad=0.1261p pd=1.005u as=0.1261p ps=1.005u w=0.485u l=0.6u
X26 VSS a_224_552# Z VPW nfet_06v0 ad=0.1261p pd=1.005u as=0.1261p ps=1.005u w=0.485u l=0.6u
X27 VSS a_224_552# Z VPW nfet_06v0 ad=0.1261p pd=1.005u as=0.1261p ps=1.005u w=0.485u l=0.6u
X28 VDD I a_224_552# VNW pfet_06v0 ad=0.428p pd=2.02u as=0.2542p ps=1.44u w=0.82u l=0.5u
X29 Z a_224_552# VDD VNW pfet_06v0 ad=0.3782p pd=1.84u as=0.3782p ps=1.84u w=1.22u l=0.5u
X30 a_224_552# I VSS VPW nfet_06v0 ad=0.1782p pd=1.69u as=0.1053p ps=0.925u w=0.405u l=0.6u
X31 Z a_224_552# VSS VPW nfet_06v0 ad=0.1261p pd=1.005u as=0.1261p ps=1.005u w=0.485u l=0.6u
X32 VSS a_224_552# Z VPW nfet_06v0 ad=0.1261p pd=1.005u as=0.1261p ps=1.005u w=0.485u l=0.6u
X33 Z a_224_552# VDD VNW pfet_06v0 ad=0.3782p pd=1.84u as=0.3782p ps=1.84u w=1.22u l=0.5u
X34 VSS a_224_552# Z VPW nfet_06v0 ad=0.2134p pd=1.85u as=0.1261p ps=1.005u w=0.485u l=0.6u
X35 VDD I a_224_552# VNW pfet_06v0 ad=0.2542p pd=1.44u as=0.2542p ps=1.44u w=0.82u l=0.5u
X36 VDD a_224_552# Z VNW pfet_06v0 ad=0.3782p pd=1.84u as=0.3782p ps=1.84u w=1.22u l=0.5u
X37 VDD a_224_552# Z VNW pfet_06v0 ad=0.3782p pd=1.84u as=0.3782p ps=1.84u w=1.22u l=0.5u
X38 Z a_224_552# VDD VNW pfet_06v0 ad=0.3782p pd=1.84u as=0.3782p ps=1.84u w=1.22u l=0.5u
X39 a_224_552# I VDD VNW pfet_06v0 ad=0.2542p pd=1.44u as=0.2542p ps=1.44u w=0.82u l=0.5u
X40 a_224_552# I VSS VPW nfet_06v0 ad=0.1053p pd=0.925u as=0.1053p ps=0.925u w=0.405u l=0.6u
X41 Z a_224_552# VSS VPW nfet_06v0 ad=0.1261p pd=1.005u as=0.2134p ps=1.85u w=0.485u l=0.6u
X42 VDD I a_224_552# VNW pfet_06v0 ad=0.2542p pd=1.44u as=0.2542p ps=1.44u w=0.82u l=0.5u
X43 VDD a_224_552# Z VNW pfet_06v0 ad=0.3782p pd=1.84u as=0.3782p ps=1.84u w=1.22u l=0.5u
X44 Z a_224_552# VSS VPW nfet_06v0 ad=0.1261p pd=1.005u as=0.1261p ps=1.005u w=0.485u l=0.6u
X45 Z a_224_552# VSS VPW nfet_06v0 ad=0.1261p pd=1.005u as=0.1261p ps=1.005u w=0.485u l=0.6u
.ends

.subckt gf180mcu_fd_sc_mcu7t5v0__clkbuf_3 Z VSS VDD I VNW VPW
X0 VDD a_224_552# Z VNW pfet_06v0 ad=0.3782p pd=1.84u as=0.3782p ps=1.84u w=1.22u l=0.5u
X1 a_224_552# I VDD VNW pfet_06v0 ad=0.2542p pd=1.44u as=0.3608p ps=2.52u w=0.82u l=0.5u
X2 VSS a_224_552# Z VPW nfet_06v0 ad=0.1183p pd=0.975u as=0.1183p ps=0.975u w=0.455u l=0.6u
X3 VDD a_224_552# Z VNW pfet_06v0 ad=0.5368p pd=3.32u as=0.3782p ps=1.84u w=1.22u l=0.5u
X4 VSS a_224_552# Z VPW nfet_06v0 ad=0.2002p pd=1.79u as=0.1183p ps=0.975u w=0.455u l=0.6u
X5 Z a_224_552# VDD VNW pfet_06v0 ad=0.3782p pd=1.84u as=0.428p ps=2.02u w=1.22u l=0.5u
X6 Z a_224_552# VSS VPW nfet_06v0 ad=0.1183p pd=0.975u as=0.234325p ps=1.94u w=0.455u l=0.6u
X7 VDD I a_224_552# VNW pfet_06v0 ad=0.428p pd=2.02u as=0.2542p ps=1.44u w=0.82u l=0.5u
X8 Z a_224_552# VDD VNW pfet_06v0 ad=0.3782p pd=1.84u as=0.3782p ps=1.84u w=1.22u l=0.5u
X9 a_224_552# I VSS VPW nfet_06v0 ad=0.51425p pd=2.91u as=0.2662p ps=2.09u w=0.605u l=0.6u
X10 Z a_224_552# VSS VPW nfet_06v0 ad=0.1183p pd=0.975u as=0.1183p ps=0.975u w=0.455u l=0.6u
.ends

.subckt gf180mcu_fd_sc_mcu7t5v0__nor3_2 A3 VDD VSS ZN A1 A2 VNW VPW
X0 VDD A3 a_1130_472# VNW pfet_06v0 ad=0.5368p pd=3.32u as=0.3477p ps=1.79u w=1.22u l=0.5u
X1 a_1130_472# A2 a_906_472# VNW pfet_06v0 ad=0.3477p pd=1.79u as=0.3782p ps=1.84u w=1.22u l=0.5u
X2 ZN A3 VSS VPW nfet_06v0 ad=0.2046p pd=1.81u as=0.1209p ps=0.985u w=0.465u l=0.6u
X3 a_244_472# A3 VDD VNW pfet_06v0 ad=0.3782p pd=1.84u as=0.5368p ps=3.32u w=1.22u l=0.5u
X4 ZN A1 VSS VPW nfet_06v0 ad=0.1209p pd=0.985u as=0.1209p ps=0.985u w=0.465u l=0.6u
X5 ZN A2 VSS VPW nfet_06v0 ad=0.1209p pd=0.985u as=0.1209p ps=0.985u w=0.465u l=0.6u
X6 VSS A2 ZN VPW nfet_06v0 ad=0.1209p pd=0.985u as=0.1209p ps=0.985u w=0.465u l=0.6u
X7 a_906_472# A1 ZN VNW pfet_06v0 ad=0.3782p pd=1.84u as=0.3782p ps=1.84u w=1.22u l=0.5u
X8 ZN A1 a_468_472# VNW pfet_06v0 ad=0.3782p pd=1.84u as=0.3477p ps=1.79u w=1.22u l=0.5u
X9 VSS A1 ZN VPW nfet_06v0 ad=0.1209p pd=0.985u as=0.1209p ps=0.985u w=0.465u l=0.6u
X10 VSS A3 ZN VPW nfet_06v0 ad=0.1209p pd=0.985u as=0.2046p ps=1.81u w=0.465u l=0.6u
X11 a_468_472# A2 a_244_472# VNW pfet_06v0 ad=0.3477p pd=1.79u as=0.3782p ps=1.84u w=1.22u l=0.5u
.ends

.subckt gf180mcu_fd_sc_mcu7t5v0__buf_2 VSS Z I VDD VNW VPW
X0 Z a_36_68# VDD VNW pfet_06v0 ad=0.3782p pd=1.84u as=0.4941p ps=2.03u w=1.22u l=0.5u
X1 VSS I a_36_68# VPW nfet_06v0 ad=0.2911p pd=1.53u as=0.3608p ps=2.52u w=0.82u l=0.6u
X2 Z a_36_68# VSS VPW nfet_06v0 ad=0.2132p pd=1.34u as=0.2911p ps=1.53u w=0.82u l=0.6u
X3 VDD I a_36_68# VNW pfet_06v0 ad=0.4941p pd=2.03u as=0.5368p ps=3.32u w=1.22u l=0.5u
X4 VSS a_36_68# Z VPW nfet_06v0 ad=0.3608p pd=2.52u as=0.2132p ps=1.34u w=0.82u l=0.6u
X5 VDD a_36_68# Z VNW pfet_06v0 ad=0.5368p pd=3.32u as=0.3782p ps=1.84u w=1.22u l=0.5u
.ends

.subckt gf180mcu_fd_sc_mcu7t5v0__dffq_4 D Q VDD VSS CLK VNW VPW
X0 VSS CLK a_36_151# VPW nfet_06v0 ad=0.1053p pd=0.925u as=0.1782p ps=1.69u w=0.405u l=0.6u
X1 VDD a_2011_527# a_2304_115# VNW pfet_06v0 ad=0.38575p pd=1.92u as=0.2457p ps=1.465u w=0.945u l=0.5u
X2 a_1004_159# D a_836_159# VPW nfet_06v0 ad=0.207p pd=1.51u as=43.199997f ps=0.6u w=0.36u l=0.6u
X3 VSS a_2304_115# Q VPW nfet_06v0 ad=0.3586p pd=2.51u as=0.2119p ps=1.335u w=0.815u l=0.6u
X4 a_2304_115# a_2011_527# VSS VPW nfet_06v0 ad=0.2119p pd=1.335u as=0.2333p ps=1.555u w=0.815u l=0.6u
X5 a_1004_159# D a_880_527# VNW pfet_06v0 ad=0.1872p pd=1.4u as=53.999996f ps=0.66u w=0.36u l=0.5u
X6 a_2011_527# a_36_151# a_1376_115# VNW pfet_06v0 ad=0.1665p pd=1.285u as=0.1791p ps=1.355u w=0.36u l=0.5u
X7 a_2296_527# a_448_472# a_2011_527# VNW pfet_06v0 ad=50.399998f pd=0.64u as=0.1665p ps=1.285u w=0.36u l=0.5u
X8 Q a_2304_115# VDD VNW pfet_06v0 ad=0.4392p pd=1.94u as=0.38575p ps=1.92u w=1.22u l=0.5u
X9 VSS a_2304_115# Q VPW nfet_06v0 ad=0.2119p pd=1.335u as=0.2119p ps=1.335u w=0.815u l=0.6u
X10 a_1376_115# a_1004_159# VDD VNW pfet_06v0 ad=0.1791p pd=1.355u as=0.1044p ps=0.94u w=0.36u l=0.5u
X11 VDD CLK a_36_151# VNW pfet_06v0 ad=0.2249p pd=1.385u as=0.3806p ps=2.61u w=0.865u l=0.5u
X12 VDD a_2304_115# Q VNW pfet_06v0 ad=0.3172p pd=1.74u as=0.4392p ps=1.94u w=1.22u l=0.5u
X13 VSS a_1376_115# a_1328_159# VPW nfet_06v0 ad=0.2637p pd=1.825u as=43.199997f ps=0.6u w=0.36u l=0.6u
X14 a_2011_527# a_448_472# a_1376_115# VPW nfet_06v0 ad=93.59999f pd=0.88u as=93.59999f ps=0.88u w=0.36u l=0.6u
X15 Q a_2304_115# VDD VNW pfet_06v0 ad=0.4392p pd=1.94u as=0.3172p ps=1.74u w=1.22u l=0.5u
X16 a_448_472# a_36_151# VDD VNW pfet_06v0 ad=0.3806p pd=2.61u as=0.2249p ps=1.385u w=0.865u l=0.5u
X17 Q a_2304_115# VSS VPW nfet_06v0 ad=0.2119p pd=1.335u as=0.2119p ps=1.335u w=0.815u l=0.6u
X18 a_1376_115# a_1004_159# VSS VPW nfet_06v0 ad=93.59999f pd=0.88u as=0.2637p ps=1.825u w=0.36u l=0.6u
X19 VSS a_2304_115# a_2256_159# VPW nfet_06v0 ad=0.2333p pd=1.555u as=43.199997f ps=0.6u w=0.36u l=0.6u
X20 Q a_2304_115# VSS VPW nfet_06v0 ad=0.2119p pd=1.335u as=0.2608p ps=1.455u w=0.815u l=0.6u
X21 a_836_159# a_36_151# VSS VPW nfet_06v0 ad=43.199997f pd=0.6u as=0.1584p ps=1.6u w=0.36u l=0.6u
X22 a_448_472# a_36_151# VSS VPW nfet_06v0 ad=0.1782p pd=1.69u as=0.1053p ps=0.925u w=0.405u l=0.6u
X23 a_2256_159# a_36_151# a_2011_527# VPW nfet_06v0 ad=43.199997f pd=0.6u as=93.59999f ps=0.88u w=0.36u l=0.6u
X24 a_880_527# a_448_472# VDD VNW pfet_06v0 ad=53.999996f pd=0.66u as=0.4554p ps=3.25u w=0.36u l=0.5u
X25 a_1348_527# a_36_151# a_1004_159# VNW pfet_06v0 ad=43.199997f pd=0.6u as=0.1872p ps=1.4u w=0.36u l=0.5u
X26 VDD a_2304_115# Q VNW pfet_06v0 ad=0.5368p pd=3.32u as=0.4392p ps=1.94u w=1.22u l=0.5u
X27 a_1328_159# a_448_472# a_1004_159# VPW nfet_06v0 ad=43.199997f pd=0.6u as=0.207p ps=1.51u w=0.36u l=0.6u
X28 VDD a_1376_115# a_1348_527# VNW pfet_06v0 ad=0.1044p pd=0.94u as=43.199997f ps=0.6u w=0.36u l=0.5u
X29 VSS a_2011_527# a_2304_115# VPW nfet_06v0 ad=0.2608p pd=1.455u as=0.2119p ps=1.335u w=0.815u l=0.6u
X30 VDD a_2304_115# a_2296_527# VNW pfet_06v0 ad=0.2619p pd=1.685u as=50.399998f ps=0.64u w=0.36u l=0.5u
X31 a_2304_115# a_2011_527# VDD VNW pfet_06v0 ad=0.2457p pd=1.465u as=0.2619p ps=1.685u w=0.945u l=0.5u
.ends

.subckt gf180mcu_fd_sc_mcu7t5v0__nand3_2 A3 VDD VSS ZN A1 A2 VNW VPW
X0 ZN A1 VDD VNW pfet_06v0 ad=0.2561p pd=1.505u as=0.2561p ps=1.505u w=0.985u l=0.5u
X1 VDD A1 ZN VNW pfet_06v0 ad=0.2561p pd=1.505u as=0.2561p ps=1.505u w=0.985u l=0.5u
X2 a_1044_68# A2 a_860_68# VPW nfet_06v0 ad=0.1722p pd=1.24u as=0.1312p ps=1.14u w=0.82u l=0.6u
X3 a_860_68# A1 ZN VPW nfet_06v0 ad=0.1312p pd=1.14u as=0.2132p ps=1.34u w=0.82u l=0.6u
X4 ZN A2 VDD VNW pfet_06v0 ad=0.2561p pd=1.505u as=0.2561p ps=1.505u w=0.985u l=0.5u
X5 VDD A3 ZN VNW pfet_06v0 ad=0.4334p pd=2.85u as=0.2561p ps=1.505u w=0.985u l=0.5u
X6 VSS A3 a_1044_68# VPW nfet_06v0 ad=0.3608p pd=2.52u as=0.1722p ps=1.24u w=0.82u l=0.6u
X7 a_276_68# A3 VSS VPW nfet_06v0 ad=0.1148p pd=1.1u as=0.3608p ps=2.52u w=0.82u l=0.6u
X8 ZN A3 VDD VNW pfet_06v0 ad=0.2561p pd=1.505u as=0.4334p ps=2.85u w=0.985u l=0.5u
X9 VDD A2 ZN VNW pfet_06v0 ad=0.2561p pd=1.505u as=0.2561p ps=1.505u w=0.985u l=0.5u
X10 a_452_68# A2 a_276_68# VPW nfet_06v0 ad=0.1312p pd=1.14u as=0.1148p ps=1.1u w=0.82u l=0.6u
X11 ZN A1 a_452_68# VPW nfet_06v0 ad=0.2132p pd=1.34u as=0.1312p ps=1.14u w=0.82u l=0.6u
.ends

.subckt gf180mcu_fd_sc_mcu7t5v0__clkinv_1 VDD VSS I ZN VNW VPW
X0 ZN I VSS VPW nfet_06v0 ad=0.2112p pd=1.84u as=0.2112p ps=1.84u w=0.48u l=0.6u
X1 ZN I VDD VNW pfet_06v0 ad=0.5368p pd=3.32u as=0.5368p ps=3.32u w=1.22u l=0.5u
.ends

.subckt gf180mcu_fd_sc_mcu7t5v0__buf_4 Z I VDD VSS VNW VPW
X0 Z a_224_472# VDD VNW pfet_06v0 ad=0.3782p pd=1.84u as=0.3782p ps=1.84u w=1.22u l=0.5u
X1 Z a_224_472# VSS VPW nfet_06v0 ad=0.2132p pd=1.34u as=0.2132p ps=1.34u w=0.82u l=0.6u
X2 VDD a_224_472# Z VNW pfet_06v0 ad=0.5368p pd=3.32u as=0.3782p ps=1.84u w=1.22u l=0.5u
X3 a_224_472# I VSS VPW nfet_06v0 ad=0.2132p pd=1.34u as=0.3608p ps=2.52u w=0.82u l=0.6u
X4 VDD I a_224_472# VNW pfet_06v0 ad=0.3782p pd=1.84u as=0.3782p ps=1.84u w=1.22u l=0.5u
X5 Z a_224_472# VDD VNW pfet_06v0 ad=0.3782p pd=1.84u as=0.3782p ps=1.84u w=1.22u l=0.5u
X6 VDD a_224_472# Z VNW pfet_06v0 ad=0.3782p pd=1.84u as=0.3782p ps=1.84u w=1.22u l=0.5u
X7 VSS a_224_472# Z VPW nfet_06v0 ad=0.3608p pd=2.52u as=0.2132p ps=1.34u w=0.82u l=0.6u
X8 VSS a_224_472# Z VPW nfet_06v0 ad=0.2132p pd=1.34u as=0.2132p ps=1.34u w=0.82u l=0.6u
X9 a_224_472# I VDD VNW pfet_06v0 ad=0.3782p pd=1.84u as=0.5368p ps=3.32u w=1.22u l=0.5u
X10 VSS I a_224_472# VPW nfet_06v0 ad=0.2132p pd=1.34u as=0.2132p ps=1.34u w=0.82u l=0.6u
X11 Z a_224_472# VSS VPW nfet_06v0 ad=0.2132p pd=1.34u as=0.2132p ps=1.34u w=0.82u l=0.6u
.ends

.subckt gf180mcu_fd_sc_mcu7t5v0__clkinv_2 VDD VSS I ZN VNW VPW
X0 ZN I VSS VPW nfet_06v0 ad=0.1248p pd=1u as=0.2112p ps=1.84u w=0.48u l=0.6u
X1 VDD I ZN VNW pfet_06v0 ad=0.5368p pd=3.32u as=0.3782p ps=1.84u w=1.22u l=0.5u
X2 ZN I VDD VNW pfet_06v0 ad=0.3782p pd=1.84u as=0.5368p ps=3.32u w=1.22u l=0.5u
X3 VSS I ZN VPW nfet_06v0 ad=0.2112p pd=1.84u as=0.1248p ps=1u w=0.48u l=0.6u
.ends

.subckt gf180mcu_fd_sc_mcu7t5v0__or3_1 A3 VDD VSS Z A1 A2 VNW VPW
X0 a_224_604# A1 a_36_88# VNW pfet_06v0 ad=0.1736p pd=1.18u as=0.2464p ps=2u w=0.56u l=0.5u
X1 a_36_88# A2 VSS VPW nfet_06v0 ad=0.14p pd=1.1u as=0.104p ps=0.92u w=0.4u l=0.6u
X2 Z a_36_88# VDD VNW pfet_06v0 ad=0.5368p pd=3.32u as=0.389p ps=2.02u w=1.22u l=0.5u
X3 VSS A1 a_36_88# VPW nfet_06v0 ad=0.104p pd=0.92u as=0.176p ps=1.68u w=0.4u l=0.6u
X4 a_448_604# A2 a_224_604# VNW pfet_06v0 ad=0.224p pd=1.36u as=0.1736p ps=1.18u w=0.56u l=0.5u
X5 VSS A3 a_36_88# VPW nfet_06v0 ad=0.224p pd=1.52u as=0.14p ps=1.1u w=0.4u l=0.6u
X6 VDD A3 a_448_604# VNW pfet_06v0 ad=0.389p pd=2.02u as=0.224p ps=1.36u w=0.56u l=0.5u
X7 Z a_36_88# VSS VPW nfet_06v0 ad=0.3608p pd=2.52u as=0.224p ps=1.52u w=0.82u l=0.6u
.ends

.subckt gf180mcu_fd_sc_mcu7t5v0__mux2_2 S VDD VSS Z I0 I1 VNW VPW
X0 a_1152_472# S a_124_24# VNW pfet_06v0 ad=0.1464p pd=1.46u as=0.3172p ps=1.74u w=1.22u l=0.5u
X1 a_692_68# I1 VSS VPW nfet_06v0 ad=98.399994f pd=1.06u as=0.2132p ps=1.34u w=0.82u l=0.6u
X2 a_124_24# S a_692_68# VPW nfet_06v0 ad=0.2132p pd=1.34u as=98.399994f ps=1.06u w=0.82u l=0.6u
X3 Z a_124_24# VSS VPW nfet_06v0 ad=0.2132p pd=1.34u as=0.3608p ps=2.52u w=0.82u l=0.6u
X4 a_848_380# S VSS VPW nfet_06v0 ad=0.3608p pd=2.52u as=0.2132p ps=1.34u w=0.82u l=0.6u
X5 VDD a_124_24# Z VNW pfet_06v0 ad=0.4392p pd=1.94u as=0.3477p ps=1.79u w=1.22u l=0.5u
X6 VDD I0 a_1152_472# VNW pfet_06v0 ad=0.3172p pd=1.74u as=0.1464p ps=1.46u w=1.22u l=0.5u
X7 a_692_472# I1 VDD VNW pfet_06v0 ad=0.4758p pd=2u as=0.4392p ps=1.94u w=1.22u l=0.5u
X8 a_848_380# S VDD VNW pfet_06v0 ad=0.5368p pd=3.32u as=0.3172p ps=1.74u w=1.22u l=0.5u
X9 Z a_124_24# VDD VNW pfet_06v0 ad=0.3477p pd=1.79u as=0.5368p ps=3.32u w=1.22u l=0.5u
X10 VSS I0 a_1084_68# VPW nfet_06v0 ad=0.2132p pd=1.34u as=0.1968p ps=1.3u w=0.82u l=0.6u
X11 a_1084_68# a_848_380# a_124_24# VPW nfet_06v0 ad=0.1968p pd=1.3u as=0.2132p ps=1.34u w=0.82u l=0.6u
X12 VSS a_124_24# Z VPW nfet_06v0 ad=0.2132p pd=1.34u as=0.2132p ps=1.34u w=0.82u l=0.6u
X13 a_124_24# a_848_380# a_692_472# VNW pfet_06v0 ad=0.3172p pd=1.74u as=0.4758p ps=2u w=1.22u l=0.5u
.ends
