* NGSPICE file created from sar.ext - technology: gf180mcuD

.subckt gf180mcu_fd_sc_mcu7t5v0__fillcap_8 VDD VSS VNW VPW VSUBS
X0 VDD a_572_375# a_484_472# VNW pfet_06v0 ad=0.537p pd=3.32u as=0.537p ps=3.32u w=1.22u l=1u
X1 a_572_375# a_484_472# VSS VSUBS nfet_06v0 ad=0.361p pd=2.52u as=0.361p ps=2.52u w=0.82u l=1u
X2 a_124_375# a_36_472# VSS VSUBS nfet_06v0 ad=0.361p pd=2.52u as=0.361p ps=2.52u w=0.82u l=1u
X3 VDD a_124_375# a_36_472# VNW pfet_06v0 ad=0.537p pd=3.32u as=0.537p ps=3.32u w=1.22u l=1u
.ends

.subckt gf180mcu_fd_sc_mcu7t5v0__dffq_1 VDD Q CLK VSS D VNW VPW VSUBS
X0 VSS CLK a_36_151# VSUBS nfet_06v0 ad=0.105p pd=0.925u as=0.178p ps=1.69u w=0.405u l=0.6u
X1 Q a_2304_115# VSS VSUBS nfet_06v0 ad=0.361p pd=2.52u as=0.361p ps=2.52u w=0.82u l=0.6u
X2 a_2304_115# a_2011_527# VSS VSUBS nfet_06v0 ad=0.176p pd=1.68u as=0.142p ps=1.14u w=0.4u l=0.6u
X3 a_1004_159# D a_836_159# VSUBS nfet_06v0 ad=0.207p pd=1.51u as=43.2f ps=0.6u w=0.36u l=0.6u
X4 a_1004_159# D a_880_527# VNW pfet_06v0 ad=0.187p pd=1.4u as=54f ps=0.66u w=0.36u l=0.5u
X5 a_2011_527# a_36_151# a_1376_115# VNW pfet_06v0 ad=0.166p pd=1.28u as=0.179p ps=1.36u w=0.36u l=0.5u
X6 a_2296_527# a_448_472# a_2011_527# VNW pfet_06v0 ad=50.4f pd=0.64u as=0.166p ps=1.28u w=0.36u l=0.5u
X7 a_1376_115# a_1004_159# VDD VNW pfet_06v0 ad=0.179p pd=1.36u as=0.104p ps=0.94u w=0.36u l=0.5u
X8 VDD CLK a_36_151# VNW pfet_06v0 ad=0.225p pd=1.38u as=0.381p ps=2.61u w=0.865u l=0.5u
X9 VSS a_1376_115# a_1328_159# VSUBS nfet_06v0 ad=0.264p pd=1.82u as=43.2f ps=0.6u w=0.36u l=0.6u
X10 a_2011_527# a_448_472# a_1376_115# VSUBS nfet_06v0 ad=93.6f pd=0.88u as=93.6f ps=0.88u w=0.36u l=0.6u
X11 a_448_472# a_36_151# VDD VNW pfet_06v0 ad=0.381p pd=2.61u as=0.225p ps=1.38u w=0.865u l=0.5u
X12 Q a_2304_115# VDD VNW pfet_06v0 ad=0.537p pd=3.32u as=0.537p ps=3.32u w=1.22u l=0.5u
X13 a_1376_115# a_1004_159# VSS VSUBS nfet_06v0 ad=93.6f pd=0.88u as=0.264p ps=1.82u w=0.36u l=0.6u
X14 VSS a_2304_115# a_2256_159# VSUBS nfet_06v0 ad=0.142p pd=1.14u as=43.2f ps=0.6u w=0.36u l=0.6u
X15 a_836_159# a_36_151# VSS VSUBS nfet_06v0 ad=43.2f pd=0.6u as=0.158p ps=1.6u w=0.36u l=0.6u
X16 a_448_472# a_36_151# VSS VSUBS nfet_06v0 ad=0.178p pd=1.69u as=0.105p ps=0.925u w=0.405u l=0.6u
X17 a_2256_159# a_36_151# a_2011_527# VSUBS nfet_06v0 ad=43.2f pd=0.6u as=93.6f ps=0.88u w=0.36u l=0.6u
X18 a_880_527# a_448_472# VDD VNW pfet_06v0 ad=54f pd=0.66u as=0.455p ps=3.25u w=0.36u l=0.5u
X19 a_1348_527# a_36_151# a_1004_159# VNW pfet_06v0 ad=43.2f pd=0.6u as=0.187p ps=1.4u w=0.36u l=0.5u
X20 a_1328_159# a_448_472# a_1004_159# VSUBS nfet_06v0 ad=43.2f pd=0.6u as=0.207p ps=1.51u w=0.36u l=0.6u
X21 VDD a_1376_115# a_1348_527# VNW pfet_06v0 ad=0.104p pd=0.94u as=43.2f ps=0.6u w=0.36u l=0.5u
X22 VDD a_2304_115# a_2296_527# VNW pfet_06v0 ad=0.23p pd=1.54u as=50.4f ps=0.64u w=0.36u l=0.5u
X23 a_2304_115# a_2011_527# VDD VNW pfet_06v0 ad=0.352p pd=2.48u as=0.23p ps=1.54u w=0.8u l=0.5u
.ends

.subckt gf180mcu_fd_sc_mcu7t5v0__mux2_2 S VDD VSS Z I0 I1 VNW VPW VSUBS
X0 a_1152_472# S a_124_24# VNW pfet_06v0 ad=0.146p pd=1.46u as=0.317p ps=1.74u w=1.22u l=0.5u
X1 a_692_68# I1 VSS VSUBS nfet_06v0 ad=98.4f pd=1.06u as=0.213p ps=1.34u w=0.82u l=0.6u
X2 a_124_24# S a_692_68# VSUBS nfet_06v0 ad=0.213p pd=1.34u as=98.4f ps=1.06u w=0.82u l=0.6u
X3 Z a_124_24# VSS VSUBS nfet_06v0 ad=0.213p pd=1.34u as=0.361p ps=2.52u w=0.82u l=0.6u
X4 a_848_380# S VSS VSUBS nfet_06v0 ad=0.361p pd=2.52u as=0.213p ps=1.34u w=0.82u l=0.6u
X5 VDD a_124_24# Z VNW pfet_06v0 ad=0.439p pd=1.94u as=0.348p ps=1.79u w=1.22u l=0.5u
X6 VDD I0 a_1152_472# VNW pfet_06v0 ad=0.317p pd=1.74u as=0.146p ps=1.46u w=1.22u l=0.5u
X7 a_692_472# I1 VDD VNW pfet_06v0 ad=0.476p pd=2u as=0.439p ps=1.94u w=1.22u l=0.5u
X8 a_848_380# S VDD VNW pfet_06v0 ad=0.537p pd=3.32u as=0.317p ps=1.74u w=1.22u l=0.5u
X9 Z a_124_24# VDD VNW pfet_06v0 ad=0.348p pd=1.79u as=0.537p ps=3.32u w=1.22u l=0.5u
X10 VSS I0 a_1084_68# VSUBS nfet_06v0 ad=0.213p pd=1.34u as=0.197p ps=1.3u w=0.82u l=0.6u
X11 a_1084_68# a_848_380# a_124_24# VSUBS nfet_06v0 ad=0.197p pd=1.3u as=0.213p ps=1.34u w=0.82u l=0.6u
X12 VSS a_124_24# Z VSUBS nfet_06v0 ad=0.213p pd=1.34u as=0.213p ps=1.34u w=0.82u l=0.6u
X13 a_124_24# a_848_380# a_692_472# VNW pfet_06v0 ad=0.317p pd=1.74u as=0.476p ps=2u w=1.22u l=0.5u
.ends

.subckt gf180mcu_fd_sc_mcu7t5v0__nand2_1 VDD VSS ZN A1 A2 VNW VPW VSUBS
X0 ZN A2 VDD VNW pfet_06v0 ad=0.294p pd=1.65u as=0.497p ps=3.14u w=1.13u l=0.5u
X1 ZN A1 a_245_68# VSUBS nfet_06v0 ad=0.361p pd=2.52u as=0.131p ps=1.14u w=0.82u l=0.6u
X2 VDD A1 ZN VNW pfet_06v0 ad=0.497p pd=3.14u as=0.294p ps=1.65u w=1.13u l=0.5u
X3 a_245_68# A2 VSS VSUBS nfet_06v0 ad=0.131p pd=1.14u as=0.361p ps=2.52u w=0.82u l=0.6u
.ends

.subckt gf180mcu_fd_sc_mcu7t5v0__clkbuf_4 Z VSS VDD I VNW VPW VSUBS
X0 Z a_224_552# VSS VSUBS nfet_06v0 ad=0.118p pd=0.975u as=0.118p ps=0.975u w=0.455u l=0.6u
X1 VDD a_224_552# Z VNW pfet_06v0 ad=0.378p pd=1.84u as=0.378p ps=1.84u w=1.22u l=0.5u
X2 a_224_552# I VDD VNW pfet_06v0 ad=0.254p pd=1.44u as=0.361p ps=2.52u w=0.82u l=0.5u
X3 a_224_552# I VSS VSUBS nfet_06v0 ad=0.266p pd=2.09u as=0.266p ps=2.09u w=0.605u l=0.6u
X4 VSS a_224_552# Z VSUBS nfet_06v0 ad=0.118p pd=0.975u as=0.118p ps=0.975u w=0.455u l=0.6u
X5 VDD a_224_552# Z VNW pfet_06v0 ad=0.537p pd=3.32u as=0.378p ps=1.84u w=1.22u l=0.5u
X6 VSS a_224_552# Z VSUBS nfet_06v0 ad=0.2p pd=1.79u as=0.118p ps=0.975u w=0.455u l=0.6u
X7 Z a_224_552# VDD VNW pfet_06v0 ad=0.378p pd=1.84u as=0.428p ps=2.02u w=1.22u l=0.5u
X8 Z a_224_552# VSS VSUBS nfet_06v0 ad=0.118p pd=0.975u as=0.2p ps=1.79u w=0.455u l=0.6u
X9 VDD I a_224_552# VNW pfet_06v0 ad=0.428p pd=2.02u as=0.254p ps=1.44u w=0.82u l=0.5u
X10 Z a_224_552# VDD VNW pfet_06v0 ad=0.378p pd=1.84u as=0.378p ps=1.84u w=1.22u l=0.5u
.ends

.subckt gf180mcu_fd_sc_mcu7t5v0__buf_3 VSS Z I VDD VNW VPW VSUBS
X0 Z a_36_68# VDD VNW pfet_06v0 ad=0.378p pd=1.84u as=0.494p ps=2.03u w=1.22u l=0.5u
X1 VSS I a_36_68# VSUBS nfet_06v0 ad=0.291p pd=1.53u as=0.361p ps=2.52u w=0.82u l=0.6u
X2 Z a_36_68# VDD VNW pfet_06v0 ad=0.537p pd=3.32u as=0.378p ps=1.84u w=1.22u l=0.5u
X3 Z a_36_68# VSS VSUBS nfet_06v0 ad=0.361p pd=2.52u as=0.213p ps=1.34u w=0.82u l=0.6u
X4 Z a_36_68# VSS VSUBS nfet_06v0 ad=0.213p pd=1.34u as=0.291p ps=1.53u w=0.82u l=0.6u
X5 VDD I a_36_68# VNW pfet_06v0 ad=0.494p pd=2.03u as=0.537p ps=3.32u w=1.22u l=0.5u
X6 VSS a_36_68# Z VSUBS nfet_06v0 ad=0.213p pd=1.34u as=0.213p ps=1.34u w=0.82u l=0.6u
X7 VDD a_36_68# Z VNW pfet_06v0 ad=0.378p pd=1.84u as=0.378p ps=1.84u w=1.22u l=0.5u
.ends

.subckt gf180mcu_fd_sc_mcu7t5v0__nand4_4 A3 A4 VDD VSS ZN A1 A2 VNW VPW VSUBS
X0 ZN A2 VDD VNW pfet_06v0 ad=0.22p pd=1.37u as=0.22p ps=1.37u w=0.845u l=0.5u
X1 VDD A1 ZN VNW pfet_06v0 ad=0.406p pd=1.81u as=0.22p ps=1.37u w=0.845u l=0.5u
X2 ZN A3 VDD VNW pfet_06v0 ad=0.22p pd=1.37u as=0.372p ps=2.57u w=0.845u l=0.5u
X3 a_244_68# A3 a_36_68# VSUBS nfet_06v0 ad=0.131p pd=1.14u as=0.361p ps=2.52u w=0.82u l=0.6u
X4 VSS A4 a_244_68# VSUBS nfet_06v0 ad=0.213p pd=1.34u as=0.131p ps=1.14u w=0.82u l=0.6u
X5 a_1468_68# A4 VSS VSUBS nfet_06v0 ad=0.152p pd=1.19u as=0.213p ps=1.34u w=0.82u l=0.6u
X6 VDD A4 ZN VNW pfet_06v0 ad=0.22p pd=1.37u as=0.22p ps=1.37u w=0.845u l=0.5u
X7 a_1866_68# A2 a_1662_68# VSUBS nfet_06v0 ad=0.152p pd=1.19u as=0.172p ps=1.24u w=0.82u l=0.6u
X8 ZN A4 VDD VNW pfet_06v0 ad=0.22p pd=1.37u as=0.22p ps=1.37u w=0.845u l=0.5u
X9 ZN A1 VDD VNW pfet_06v0 ad=0.22p pd=1.37u as=0.406p ps=1.81u w=0.845u l=0.5u
X10 a_3276_68# A1 ZN VSUBS nfet_06v0 ad=0.131p pd=1.14u as=0.416p ps=1.9u w=0.82u l=0.6u
X11 a_652_68# A4 VSS VSUBS nfet_06v0 ad=0.131p pd=1.14u as=0.213p ps=1.34u w=0.82u l=0.6u
X12 a_36_68# A3 a_652_68# VSUBS nfet_06v0 ad=0.213p pd=1.34u as=0.131p ps=1.14u w=0.82u l=0.6u
X13 VDD A2 ZN VNW pfet_06v0 ad=0.372p pd=2.57u as=0.22p ps=1.37u w=0.845u l=0.5u
X14 VDD A3 ZN VNW pfet_06v0 ad=0.22p pd=1.37u as=0.22p ps=1.37u w=0.845u l=0.5u
X15 VSS A4 a_1060_68# VSUBS nfet_06v0 ad=0.213p pd=1.34u as=0.131p ps=1.14u w=0.82u l=0.6u
X16 ZN A3 VDD VNW pfet_06v0 ad=0.22p pd=1.37u as=0.22p ps=1.37u w=0.845u l=0.5u
X17 a_2372_68# A1 ZN VSUBS nfet_06v0 ad=0.131p pd=1.14u as=0.416p ps=1.9u w=0.82u l=0.6u
X18 a_36_68# A2 a_2372_68# VSUBS nfet_06v0 ad=0.213p pd=1.34u as=0.131p ps=1.14u w=0.82u l=0.6u
X19 ZN A1 VDD VNW pfet_06v0 ad=0.22p pd=1.37u as=0.406p ps=1.81u w=0.845u l=0.5u
X20 a_1060_68# A3 a_36_68# VSUBS nfet_06v0 ad=0.131p pd=1.14u as=0.213p ps=1.34u w=0.82u l=0.6u
X21 VDD A2 ZN VNW pfet_06v0 ad=0.22p pd=1.37u as=0.22p ps=1.37u w=0.845u l=0.5u
X22 VDD A4 ZN VNW pfet_06v0 ad=0.22p pd=1.37u as=0.22p ps=1.37u w=0.845u l=0.5u
X23 ZN A2 VDD VNW pfet_06v0 ad=0.22p pd=1.37u as=0.22p ps=1.37u w=0.845u l=0.5u
X24 ZN A1 a_2780_68# VSUBS nfet_06v0 ad=0.416p pd=1.9u as=0.131p ps=1.14u w=0.82u l=0.6u
X25 a_2780_68# A2 a_36_68# VSUBS nfet_06v0 ad=0.131p pd=1.14u as=0.213p ps=1.34u w=0.82u l=0.6u
X26 ZN A4 VDD VNW pfet_06v0 ad=0.22p pd=1.37u as=0.22p ps=1.37u w=0.845u l=0.5u
X27 VDD A1 ZN VNW pfet_06v0 ad=0.406p pd=1.81u as=0.22p ps=1.37u w=0.845u l=0.5u
X28 a_36_68# A2 a_3276_68# VSUBS nfet_06v0 ad=0.361p pd=2.52u as=0.131p ps=1.14u w=0.82u l=0.6u
X29 VDD A3 ZN VNW pfet_06v0 ad=0.22p pd=1.37u as=0.22p ps=1.37u w=0.845u l=0.5u
X30 a_1662_68# A3 a_1468_68# VSUBS nfet_06v0 ad=0.172p pd=1.24u as=0.152p ps=1.19u w=0.82u l=0.6u
X31 ZN A1 a_1866_68# VSUBS nfet_06v0 ad=0.416p pd=1.9u as=0.152p ps=1.19u w=0.82u l=0.6u
.ends

.subckt gf180mcu_fd_sc_mcu7t5v0__fillcap_4 VDD VSS VNW VPW VSUBS
X0 a_124_375# a_36_472# VSS VSUBS nfet_06v0 ad=0.361p pd=2.52u as=0.361p ps=2.52u w=0.82u l=1u
X1 VDD a_124_375# a_36_472# VNW pfet_06v0 ad=0.537p pd=3.32u as=0.537p ps=3.32u w=1.22u l=1u
.ends

.subckt gf180mcu_fd_sc_mcu7t5v0__oai21_1 VDD B A2 ZN A1 VSS VNW VPW VSUBS
X0 VSS B a_36_68# VSUBS nfet_06v0 ad=0.361p pd=2.52u as=0.213p ps=1.34u w=0.82u l=0.6u
X1 ZN A2 a_36_68# VSUBS nfet_06v0 ad=0.213p pd=1.34u as=0.361p ps=2.52u w=0.82u l=0.6u
X2 VDD B ZN VNW pfet_06v0 ad=0.497p pd=3.14u as=0.425p ps=1.94u w=1.13u l=0.5u
X3 a_244_472# A2 VDD VNW pfet_06v0 ad=0.317p pd=1.74u as=0.598p ps=3.42u w=1.22u l=0.5u
X4 ZN A1 a_244_472# VNW pfet_06v0 ad=0.425p pd=1.94u as=0.317p ps=1.74u w=1.22u l=0.5u
X5 a_36_68# A1 ZN VSUBS nfet_06v0 ad=0.213p pd=1.34u as=0.213p ps=1.34u w=0.82u l=0.6u
.ends

.subckt gf180mcu_fd_sc_mcu7t5v0__nor2_1 VDD VSS ZN A1 A2 VNW VPW VSUBS
X0 ZN A1 a_224_472# VNW pfet_06v0 ad=0.537p pd=3.32u as=0.409p ps=1.89u w=1.22u l=0.5u
X1 VSS A1 ZN VSUBS nfet_06v0 ad=0.249p pd=2.01u as=0.147p ps=1.09u w=0.565u l=0.6u
X2 a_224_472# A2 VDD VNW pfet_06v0 ad=0.409p pd=1.89u as=0.537p ps=3.32u w=1.22u l=0.5u
X3 ZN A2 VSS VSUBS nfet_06v0 ad=0.147p pd=1.09u as=0.249p ps=2.01u w=0.565u l=0.6u
.ends

.subckt gf180mcu_fd_sc_mcu7t5v0__nor3_2 A3 VDD VSS ZN A1 A2 VNW VPW VSUBS
X0 VDD A3 a_1130_472# VNW pfet_06v0 ad=0.537p pd=3.32u as=0.348p ps=1.79u w=1.22u l=0.5u
X1 a_1130_472# A2 a_906_472# VNW pfet_06v0 ad=0.348p pd=1.79u as=0.378p ps=1.84u w=1.22u l=0.5u
X2 ZN A3 VSS VSUBS nfet_06v0 ad=0.205p pd=1.81u as=0.121p ps=0.985u w=0.465u l=0.6u
X3 a_244_472# A3 VDD VNW pfet_06v0 ad=0.378p pd=1.84u as=0.537p ps=3.32u w=1.22u l=0.5u
X4 ZN A1 VSS VSUBS nfet_06v0 ad=0.121p pd=0.985u as=0.121p ps=0.985u w=0.465u l=0.6u
X5 ZN A2 VSS VSUBS nfet_06v0 ad=0.121p pd=0.985u as=0.121p ps=0.985u w=0.465u l=0.6u
X6 VSS A2 ZN VSUBS nfet_06v0 ad=0.121p pd=0.985u as=0.121p ps=0.985u w=0.465u l=0.6u
X7 a_906_472# A1 ZN VNW pfet_06v0 ad=0.378p pd=1.84u as=0.378p ps=1.84u w=1.22u l=0.5u
X8 ZN A1 a_468_472# VNW pfet_06v0 ad=0.378p pd=1.84u as=0.348p ps=1.79u w=1.22u l=0.5u
X9 VSS A1 ZN VSUBS nfet_06v0 ad=0.121p pd=0.985u as=0.121p ps=0.985u w=0.465u l=0.6u
X10 VSS A3 ZN VSUBS nfet_06v0 ad=0.121p pd=0.985u as=0.205p ps=1.81u w=0.465u l=0.6u
X11 a_468_472# A2 a_244_472# VNW pfet_06v0 ad=0.348p pd=1.79u as=0.378p ps=1.84u w=1.22u l=0.5u
.ends

.subckt gf180mcu_fd_sc_mcu7t5v0__fillcap_16 VDD VSS VNW VPW VSUBS
X0 VDD a_572_375# a_484_472# VNW pfet_06v0 ad=0.537p pd=3.32u as=0.537p ps=3.32u w=1.22u l=1u
X1 a_572_375# a_484_472# VSS VSUBS nfet_06v0 ad=0.361p pd=2.52u as=0.361p ps=2.52u w=0.82u l=1u
X2 a_124_375# a_36_472# VSS VSUBS nfet_06v0 ad=0.361p pd=2.52u as=0.361p ps=2.52u w=0.82u l=1u
X3 a_1468_375# a_1380_472# VSS VSUBS nfet_06v0 ad=0.361p pd=2.52u as=0.361p ps=2.52u w=0.82u l=1u
X4 VDD a_1020_375# a_932_472# VNW pfet_06v0 ad=0.537p pd=3.32u as=0.537p ps=3.32u w=1.22u l=1u
X5 VDD a_1468_375# a_1380_472# VNW pfet_06v0 ad=0.537p pd=3.32u as=0.537p ps=3.32u w=1.22u l=1u
X6 VDD a_124_375# a_36_472# VNW pfet_06v0 ad=0.537p pd=3.32u as=0.537p ps=3.32u w=1.22u l=1u
X7 a_1020_375# a_932_472# VSS VSUBS nfet_06v0 ad=0.361p pd=2.52u as=0.361p ps=2.52u w=0.82u l=1u
.ends

.subckt gf180mcu_fd_sc_mcu7t5v0__oai211_1 B C VDD VSS ZN A1 A2 VNW VPW VSUBS
X0 a_692_68# B a_36_68# VSUBS nfet_06v0 ad=0.213p pd=1.34u as=0.213p ps=1.34u w=0.82u l=0.6u
X1 ZN A2 a_36_68# VSUBS nfet_06v0 ad=0.213p pd=1.34u as=0.361p ps=2.52u w=0.82u l=0.6u
X2 a_244_472# A2 VDD VNW pfet_06v0 ad=0.317p pd=1.74u as=0.598p ps=3.42u w=1.22u l=0.5u
X3 VDD B ZN VNW pfet_06v0 ad=0.256p pd=1.5u as=0.402p ps=1.94u w=0.985u l=0.5u
X4 ZN A1 a_244_472# VNW pfet_06v0 ad=0.402p pd=1.94u as=0.317p ps=1.74u w=1.22u l=0.5u
X5 ZN C VDD VNW pfet_06v0 ad=0.443p pd=2.87u as=0.256p ps=1.5u w=0.985u l=0.5u
X6 VSS C a_692_68# VSUBS nfet_06v0 ad=0.361p pd=2.52u as=0.213p ps=1.34u w=0.82u l=0.6u
X7 a_36_68# A1 ZN VSUBS nfet_06v0 ad=0.213p pd=1.34u as=0.213p ps=1.34u w=0.82u l=0.6u
.ends

.subckt gf180mcu_fd_sc_mcu7t5v0__nor2_2 VDD VSS ZN A1 A2 VNW VPW VSUBS
X0 a_672_472# A1 ZN VNW pfet_06v0 ad=0.409p pd=1.89u as=0.348p ps=1.79u w=1.22u l=0.5u
X1 ZN A1 VSS VSUBS nfet_06v0 ad=0.147p pd=1.09u as=0.147p ps=1.09u w=0.565u l=0.6u
X2 ZN A1 a_234_472# VNW pfet_06v0 ad=0.348p pd=1.79u as=0.378p ps=1.84u w=1.22u l=0.5u
X3 VSS A1 ZN VSUBS nfet_06v0 ad=0.147p pd=1.09u as=0.147p ps=1.09u w=0.565u l=0.6u
X4 a_234_472# A2 VDD VNW pfet_06v0 ad=0.378p pd=1.84u as=0.537p ps=3.32u w=1.22u l=0.5u
X5 VDD A2 a_672_472# VNW pfet_06v0 ad=0.537p pd=3.32u as=0.409p ps=1.89u w=1.22u l=0.5u
X6 VSS A2 ZN VSUBS nfet_06v0 ad=0.249p pd=2.01u as=0.147p ps=1.09u w=0.565u l=0.6u
X7 ZN A2 VSS VSUBS nfet_06v0 ad=0.147p pd=1.09u as=0.249p ps=2.01u w=0.565u l=0.6u
.ends

.subckt gf180mcu_fd_sc_mcu7t5v0__clkbuf_16 VDD VSS Z I VNW VPW VSUBS
X0 VSS I a_224_552# VSUBS nfet_06v0 ad=0.105p pd=0.925u as=0.105p ps=0.925u w=0.405u l=0.6u
X1 VSS a_224_552# Z VSUBS nfet_06v0 ad=0.126p pd=1u as=0.126p ps=1u w=0.485u l=0.6u
X2 a_224_552# I VDD VNW pfet_06v0 ad=0.254p pd=1.44u as=0.254p ps=1.44u w=0.82u l=0.5u
X3 Z a_224_552# VDD VNW pfet_06v0 ad=0.378p pd=1.84u as=0.378p ps=1.84u w=1.22u l=0.5u
X4 Z a_224_552# VSS VSUBS nfet_06v0 ad=0.126p pd=1u as=0.126p ps=1u w=0.485u l=0.6u
X5 VDD a_224_552# Z VNW pfet_06v0 ad=0.378p pd=1.84u as=0.378p ps=1.84u w=1.22u l=0.5u
X6 VDD a_224_552# Z VNW pfet_06v0 ad=0.378p pd=1.84u as=0.378p ps=1.84u w=1.22u l=0.5u
X7 Z a_224_552# VDD VNW pfet_06v0 ad=0.378p pd=1.84u as=0.378p ps=1.84u w=1.22u l=0.5u
X8 a_224_552# I VDD VNW pfet_06v0 ad=0.254p pd=1.44u as=0.361p ps=2.52u w=0.82u l=0.5u
X9 VDD a_224_552# Z VNW pfet_06v0 ad=0.378p pd=1.84u as=0.378p ps=1.84u w=1.22u l=0.5u
X10 Z a_224_552# VSS VSUBS nfet_06v0 ad=0.126p pd=1u as=0.126p ps=1u w=0.485u l=0.6u
X11 VSS a_224_552# Z VSUBS nfet_06v0 ad=0.126p pd=1u as=0.126p ps=1u w=0.485u l=0.6u
X12 VSS a_224_552# Z VSUBS nfet_06v0 ad=0.126p pd=1u as=0.126p ps=1u w=0.485u l=0.6u
X13 VDD a_224_552# Z VNW pfet_06v0 ad=0.537p pd=3.32u as=0.378p ps=1.84u w=1.22u l=0.5u
X14 Z a_224_552# VSS VSUBS nfet_06v0 ad=0.126p pd=1u as=0.126p ps=1u w=0.485u l=0.6u
X15 VSS I a_224_552# VSUBS nfet_06v0 ad=0.105p pd=0.925u as=0.178p ps=1.69u w=0.405u l=0.6u
X16 a_224_552# I VDD VNW pfet_06v0 ad=0.254p pd=1.44u as=0.254p ps=1.44u w=0.82u l=0.5u
X17 a_224_552# I VSS VSUBS nfet_06v0 ad=0.105p pd=0.925u as=0.105p ps=0.925u w=0.405u l=0.6u
X18 VSS a_224_552# Z VSUBS nfet_06v0 ad=0.126p pd=1u as=0.126p ps=1u w=0.485u l=0.6u
X19 Z a_224_552# VDD VNW pfet_06v0 ad=0.378p pd=1.84u as=0.428p ps=2.02u w=1.22u l=0.5u
X20 VDD I a_224_552# VNW pfet_06v0 ad=0.254p pd=1.44u as=0.254p ps=1.44u w=0.82u l=0.5u
X21 Z a_224_552# VDD VNW pfet_06v0 ad=0.378p pd=1.84u as=0.378p ps=1.84u w=1.22u l=0.5u
X22 Z a_224_552# VDD VNW pfet_06v0 ad=0.378p pd=1.84u as=0.378p ps=1.84u w=1.22u l=0.5u
X23 VSS I a_224_552# VSUBS nfet_06v0 ad=0.105p pd=0.925u as=0.105p ps=0.925u w=0.405u l=0.6u
X24 VDD a_224_552# Z VNW pfet_06v0 ad=0.378p pd=1.84u as=0.378p ps=1.84u w=1.22u l=0.5u
X25 Z a_224_552# VSS VSUBS nfet_06v0 ad=0.126p pd=1u as=0.126p ps=1u w=0.485u l=0.6u
X26 VSS a_224_552# Z VSUBS nfet_06v0 ad=0.126p pd=1u as=0.126p ps=1u w=0.485u l=0.6u
X27 VSS a_224_552# Z VSUBS nfet_06v0 ad=0.126p pd=1u as=0.126p ps=1u w=0.485u l=0.6u
X28 VDD I a_224_552# VNW pfet_06v0 ad=0.428p pd=2.02u as=0.254p ps=1.44u w=0.82u l=0.5u
X29 Z a_224_552# VDD VNW pfet_06v0 ad=0.378p pd=1.84u as=0.378p ps=1.84u w=1.22u l=0.5u
X30 a_224_552# I VSS VSUBS nfet_06v0 ad=0.178p pd=1.69u as=0.105p ps=0.925u w=0.405u l=0.6u
X31 Z a_224_552# VSS VSUBS nfet_06v0 ad=0.126p pd=1u as=0.126p ps=1u w=0.485u l=0.6u
X32 VSS a_224_552# Z VSUBS nfet_06v0 ad=0.126p pd=1u as=0.126p ps=1u w=0.485u l=0.6u
X33 Z a_224_552# VDD VNW pfet_06v0 ad=0.378p pd=1.84u as=0.378p ps=1.84u w=1.22u l=0.5u
X34 VSS a_224_552# Z VSUBS nfet_06v0 ad=0.213p pd=1.85u as=0.126p ps=1u w=0.485u l=0.6u
X35 VDD I a_224_552# VNW pfet_06v0 ad=0.254p pd=1.44u as=0.254p ps=1.44u w=0.82u l=0.5u
X36 VDD a_224_552# Z VNW pfet_06v0 ad=0.378p pd=1.84u as=0.378p ps=1.84u w=1.22u l=0.5u
X37 VDD a_224_552# Z VNW pfet_06v0 ad=0.378p pd=1.84u as=0.378p ps=1.84u w=1.22u l=0.5u
X38 Z a_224_552# VDD VNW pfet_06v0 ad=0.378p pd=1.84u as=0.378p ps=1.84u w=1.22u l=0.5u
X39 a_224_552# I VDD VNW pfet_06v0 ad=0.254p pd=1.44u as=0.254p ps=1.44u w=0.82u l=0.5u
X40 a_224_552# I VSS VSUBS nfet_06v0 ad=0.105p pd=0.925u as=0.105p ps=0.925u w=0.405u l=0.6u
X41 Z a_224_552# VSS VSUBS nfet_06v0 ad=0.126p pd=1u as=0.213p ps=1.85u w=0.485u l=0.6u
X42 VDD I a_224_552# VNW pfet_06v0 ad=0.254p pd=1.44u as=0.254p ps=1.44u w=0.82u l=0.5u
X43 VDD a_224_552# Z VNW pfet_06v0 ad=0.378p pd=1.84u as=0.378p ps=1.84u w=1.22u l=0.5u
X44 Z a_224_552# VSS VSUBS nfet_06v0 ad=0.126p pd=1u as=0.126p ps=1u w=0.485u l=0.6u
X45 Z a_224_552# VSS VSUBS nfet_06v0 ad=0.126p pd=1u as=0.126p ps=1u w=0.485u l=0.6u
.ends

.subckt gf180mcu_fd_sc_mcu7t5v0__nor4_2 A3 A4 VDD VSS ZN A1 A2 VNW VPW VSUBS
X0 VSS A3 ZN VSUBS nfet_06v0 ad=0.126p pd=1.06u as=0.126p ps=1.06u w=0.36u l=0.6u
X1 a_1213_472# A2 a_943_472# VNW pfet_06v0 ad=0.348p pd=1.79u as=0.518p ps=2.07u w=1.22u l=0.5u
X2 VSS A2 ZN VSUBS nfet_06v0 ad=0.158p pd=1.6u as=93.6f ps=0.88u w=0.36u l=0.6u
X3 a_943_472# A3 a_683_472# VNW pfet_06v0 ad=0.518p pd=2.07u as=0.488p ps=2.02u w=1.22u l=0.5u
X4 VSS A1 ZN VSUBS nfet_06v0 ad=93.6f pd=0.88u as=93.6f ps=0.88u w=0.36u l=0.6u
X5 a_1661_472# A1 ZN VNW pfet_06v0 ad=0.317p pd=1.74u as=0.409p ps=1.89u w=1.22u l=0.5u
X6 VSS A4 ZN VSUBS nfet_06v0 ad=93.6f pd=0.88u as=93.6f ps=0.88u w=0.36u l=0.6u
X7 a_57_472# A2 a_1661_472# VNW pfet_06v0 ad=0.537p pd=3.32u as=0.317p ps=1.74u w=1.22u l=0.5u
X8 ZN A1 VSS VSUBS nfet_06v0 ad=93.6f pd=0.88u as=93.6f ps=0.88u w=0.36u l=0.6u
X9 VDD A4 a_245_472# VNW pfet_06v0 ad=0.378p pd=1.84u as=0.348p ps=1.79u w=1.22u l=0.5u
X10 ZN A2 VSS VSUBS nfet_06v0 ad=93.6f pd=0.88u as=0.126p ps=1.06u w=0.36u l=0.6u
X11 ZN A4 VSS VSUBS nfet_06v0 ad=0.126p pd=1.06u as=93.6f ps=0.88u w=0.36u l=0.6u
X12 a_245_472# A3 a_57_472# VNW pfet_06v0 ad=0.348p pd=1.79u as=0.537p ps=3.32u w=1.22u l=0.5u
X13 ZN A3 VSS VSUBS nfet_06v0 ad=93.6f pd=0.88u as=0.158p ps=1.6u w=0.36u l=0.6u
X14 ZN A1 a_1213_472# VNW pfet_06v0 ad=0.409p pd=1.89u as=0.348p ps=1.79u w=1.22u l=0.5u
X15 a_683_472# A4 VDD VNW pfet_06v0 ad=0.488p pd=2.02u as=0.378p ps=1.84u w=1.22u l=0.5u
.ends

.subckt gf180mcu_fd_sc_mcu7t5v0__clkbuf_2 Z VSS VDD I VNW VPW VSUBS
X0 VDD I a_36_160# VNW pfet_06v0 ad=0.458p pd=2.02u as=0.449p ps=2.92u w=1.02u l=0.5u
X1 VSS I a_36_160# VSUBS nfet_06v0 ad=0.151p pd=1.18u as=0.158p ps=1.6u w=0.36u l=0.6u
X2 VDD a_36_160# Z VNW pfet_06v0 ad=0.537p pd=3.32u as=0.378p ps=1.84u w=1.22u l=0.5u
X3 Z a_36_160# VDD VNW pfet_06v0 ad=0.378p pd=1.84u as=0.458p ps=2.02u w=1.22u l=0.5u
X4 VSS a_36_160# Z VSUBS nfet_06v0 ad=0.213p pd=1.85u as=0.126p ps=1u w=0.485u l=0.6u
X5 Z a_36_160# VSS VSUBS nfet_06v0 ad=0.126p pd=1u as=0.151p ps=1.18u w=0.485u l=0.6u
.ends

.subckt gf180mcu_fd_sc_mcu7t5v0__aoi21_1 B VDD VSS ZN A1 A2 VNW VPW VSUBS
X0 a_244_68# A2 VSS VSUBS nfet_06v0 ad=0.131p pd=1.14u as=0.361p ps=2.52u w=0.82u l=0.6u
X1 ZN A1 a_244_68# VSUBS nfet_06v0 ad=0.257p pd=1.56u as=0.131p ps=1.14u w=0.82u l=0.6u
X2 VDD B a_36_472# VNW pfet_06v0 ad=0.535p pd=3.31u as=0.45p ps=1.96u w=1.22u l=0.5u
X3 ZN A2 a_36_472# VNW pfet_06v0 ad=0.316p pd=1.74u as=0.535p ps=3.31u w=1.22u l=0.5u
X4 a_36_472# A1 ZN VNW pfet_06v0 ad=0.45p pd=1.96u as=0.316p ps=1.74u w=1.22u l=0.5u
X5 VSS B ZN VSUBS nfet_06v0 ad=0.224p pd=1.9u as=0.257p ps=1.56u w=0.51u l=0.6u
.ends

.subckt gf180mcu_fd_sc_mcu7t5v0__clkbuf_8 Z VSS VDD I VNW VPW VSUBS
X0 Z a_224_552# VSS VSUBS nfet_06v0 ad=0.112p pd=0.95u as=0.189p ps=1.74u w=0.43u l=0.6u
X1 VSS a_224_552# Z VSUBS nfet_06v0 ad=0.112p pd=0.95u as=0.112p ps=0.95u w=0.43u l=0.6u
X2 VDD a_224_552# Z VNW pfet_06v0 ad=0.317p pd=1.74u as=0.439p ps=1.94u w=1.22u l=0.5u
X3 a_224_552# I VDD VNW pfet_06v0 ad=0.295p pd=1.54u as=0.361p ps=2.52u w=0.82u l=0.5u
X4 VDD I a_224_552# VNW pfet_06v0 ad=0.213p pd=1.34u as=0.295p ps=1.54u w=0.82u l=0.5u
X5 Z a_224_552# VDD VNW pfet_06v0 ad=0.439p pd=1.94u as=0.317p ps=1.74u w=1.22u l=0.5u
X6 VDD a_224_552# Z VNW pfet_06v0 ad=0.317p pd=1.74u as=0.439p ps=1.94u w=1.22u l=0.5u
X7 VSS I a_224_552# VSUBS nfet_06v0 ad=0.105p pd=0.925u as=0.105p ps=0.925u w=0.405u l=0.6u
X8 a_224_552# I VDD VNW pfet_06v0 ad=0.295p pd=1.54u as=0.213p ps=1.34u w=0.82u l=0.5u
X9 VDD a_224_552# Z VNW pfet_06v0 ad=0.317p pd=1.74u as=0.439p ps=1.94u w=1.22u l=0.5u
X10 VSS a_224_552# Z VSUBS nfet_06v0 ad=0.189p pd=1.74u as=0.112p ps=0.95u w=0.43u l=0.6u
X11 Z a_224_552# VDD VNW pfet_06v0 ad=0.439p pd=1.94u as=0.317p ps=1.74u w=1.22u l=0.5u
X12 Z a_224_552# VSS VSUBS nfet_06v0 ad=0.112p pd=0.95u as=0.112p ps=0.95u w=0.43u l=0.6u
X13 VSS a_224_552# Z VSUBS nfet_06v0 ad=0.112p pd=0.95u as=0.112p ps=0.95u w=0.43u l=0.6u
X14 Z a_224_552# VSS VSUBS nfet_06v0 ad=0.112p pd=0.95u as=0.112p ps=0.95u w=0.43u l=0.6u
X15 Z a_224_552# VDD VNW pfet_06v0 ad=0.439p pd=1.94u as=0.317p ps=1.74u w=1.22u l=0.5u
X16 VDD I a_224_552# VNW pfet_06v0 ad=0.367p pd=1.92u as=0.295p ps=1.54u w=0.82u l=0.5u
X17 VDD a_224_552# Z VNW pfet_06v0 ad=0.537p pd=3.32u as=0.439p ps=1.94u w=1.22u l=0.5u
X18 a_224_552# I VSS VSUBS nfet_06v0 ad=0.105p pd=0.925u as=0.178p ps=1.69u w=0.405u l=0.6u
X19 Z a_224_552# VSS VSUBS nfet_06v0 ad=0.112p pd=0.95u as=0.112p ps=0.95u w=0.43u l=0.6u
X20 Z a_224_552# VDD VNW pfet_06v0 ad=0.439p pd=1.94u as=0.367p ps=1.92u w=1.22u l=0.5u
X21 a_224_552# I VSS VSUBS nfet_06v0 ad=0.178p pd=1.69u as=0.105p ps=0.925u w=0.405u l=0.6u
X22 VSS a_224_552# Z VSUBS nfet_06v0 ad=0.112p pd=0.95u as=0.112p ps=0.95u w=0.43u l=0.6u
.ends

.subckt gf180mcu_fd_sc_mcu7t5v0__clkinv_1 VDD VSS I ZN VNW VPW VSUBS
X0 ZN I VSS VSUBS nfet_06v0 ad=0.211p pd=1.84u as=0.211p ps=1.84u w=0.48u l=0.6u
X1 ZN I VDD VNW pfet_06v0 ad=0.537p pd=3.32u as=0.537p ps=3.32u w=1.22u l=0.5u
.ends

.subckt gf180mcu_fd_sc_mcu7t5v0__clkbuf_3 Z VSS VDD I VNW VPW VSUBS
X0 VDD a_224_552# Z VNW pfet_06v0 ad=0.378p pd=1.84u as=0.378p ps=1.84u w=1.22u l=0.5u
X1 a_224_552# I VDD VNW pfet_06v0 ad=0.254p pd=1.44u as=0.361p ps=2.52u w=0.82u l=0.5u
X2 VSS a_224_552# Z VSUBS nfet_06v0 ad=0.118p pd=0.975u as=0.118p ps=0.975u w=0.455u l=0.6u
X3 VDD a_224_552# Z VNW pfet_06v0 ad=0.537p pd=3.32u as=0.378p ps=1.84u w=1.22u l=0.5u
X4 VSS a_224_552# Z VSUBS nfet_06v0 ad=0.2p pd=1.79u as=0.118p ps=0.975u w=0.455u l=0.6u
X5 Z a_224_552# VDD VNW pfet_06v0 ad=0.378p pd=1.84u as=0.428p ps=2.02u w=1.22u l=0.5u
X6 Z a_224_552# VSS VSUBS nfet_06v0 ad=0.118p pd=0.975u as=0.234p ps=1.94u w=0.455u l=0.6u
X7 VDD I a_224_552# VNW pfet_06v0 ad=0.428p pd=2.02u as=0.254p ps=1.44u w=0.82u l=0.5u
X8 Z a_224_552# VDD VNW pfet_06v0 ad=0.378p pd=1.84u as=0.378p ps=1.84u w=1.22u l=0.5u
X9 a_224_552# I VSS VSUBS nfet_06v0 ad=0.514p pd=2.91u as=0.266p ps=2.09u w=0.605u l=0.6u
X10 Z a_224_552# VSS VSUBS nfet_06v0 ad=0.118p pd=0.975u as=0.118p ps=0.975u w=0.455u l=0.6u
.ends

.subckt gf180mcu_fd_sc_mcu7t5v0__buf_4 Z I VDD VSS VNW VPW VSUBS
X0 Z a_224_472# VDD VNW pfet_06v0 ad=0.378p pd=1.84u as=0.378p ps=1.84u w=1.22u l=0.5u
X1 Z a_224_472# VSS VSUBS nfet_06v0 ad=0.213p pd=1.34u as=0.213p ps=1.34u w=0.82u l=0.6u
X2 VDD a_224_472# Z VNW pfet_06v0 ad=0.537p pd=3.32u as=0.378p ps=1.84u w=1.22u l=0.5u
X3 a_224_472# I VSS VSUBS nfet_06v0 ad=0.213p pd=1.34u as=0.361p ps=2.52u w=0.82u l=0.6u
X4 VDD I a_224_472# VNW pfet_06v0 ad=0.378p pd=1.84u as=0.378p ps=1.84u w=1.22u l=0.5u
X5 Z a_224_472# VDD VNW pfet_06v0 ad=0.378p pd=1.84u as=0.378p ps=1.84u w=1.22u l=0.5u
X6 VDD a_224_472# Z VNW pfet_06v0 ad=0.378p pd=1.84u as=0.378p ps=1.84u w=1.22u l=0.5u
X7 VSS a_224_472# Z VSUBS nfet_06v0 ad=0.361p pd=2.52u as=0.213p ps=1.34u w=0.82u l=0.6u
X8 VSS a_224_472# Z VSUBS nfet_06v0 ad=0.213p pd=1.34u as=0.213p ps=1.34u w=0.82u l=0.6u
X9 a_224_472# I VDD VNW pfet_06v0 ad=0.378p pd=1.84u as=0.537p ps=3.32u w=1.22u l=0.5u
X10 VSS I a_224_472# VSUBS nfet_06v0 ad=0.213p pd=1.34u as=0.213p ps=1.34u w=0.82u l=0.6u
X11 Z a_224_472# VSS VSUBS nfet_06v0 ad=0.213p pd=1.34u as=0.213p ps=1.34u w=0.82u l=0.6u
.ends

.subckt gf180mcu_fd_sc_mcu7t5v0__clkinv_3 VDD ZN I VSS VNW VPW VSUBS
X0 ZN I VDD VNW pfet_06v0 ad=0.537p pd=3.32u as=0.378p ps=1.84u w=1.22u l=0.5u
X1 ZN I VSS VSUBS nfet_06v0 ad=0.125p pd=1u as=0.211p ps=1.84u w=0.48u l=0.6u
X2 VDD I ZN VNW pfet_06v0 ad=0.378p pd=1.84u as=0.378p ps=1.84u w=1.22u l=0.5u
X3 ZN I VSS VSUBS nfet_06v0 ad=0.211p pd=1.84u as=0.125p ps=1u w=0.48u l=0.6u
X4 ZN I VDD VNW pfet_06v0 ad=0.378p pd=1.84u as=0.537p ps=3.32u w=1.22u l=0.5u
X5 VSS I ZN VSUBS nfet_06v0 ad=0.125p pd=1u as=0.125p ps=1u w=0.48u l=0.6u
.ends

.subckt gf180mcu_fd_sc_mcu7t5v0__clkbuf_1 VSS Z I VDD VNW VPW VSUBS
X0 VDD I a_36_113# VNW pfet_06v0 ad=0.401p pd=1.92u as=0.462p ps=2.98u w=1.05u l=0.5u
X1 Z a_36_113# VDD VNW pfet_06v0 ad=0.537p pd=3.32u as=0.401p ps=1.92u w=1.22u l=0.5u
X2 Z a_36_113# VSS VSUBS nfet_06v0 ad=0.218p pd=1.87u as=0.153p ps=1.19u w=0.495u l=0.6u
X3 VSS I a_36_113# VSUBS nfet_06v0 ad=0.153p pd=1.19u as=0.158p ps=1.6u w=0.36u l=0.6u
.ends

.subckt gf180mcu_fd_sc_mcu7t5v0__clkinv_2 VDD VSS I ZN VNW VPW VSUBS
X0 ZN I VSS VSUBS nfet_06v0 ad=0.125p pd=1u as=0.211p ps=1.84u w=0.48u l=0.6u
X1 VDD I ZN VNW pfet_06v0 ad=0.537p pd=3.32u as=0.378p ps=1.84u w=1.22u l=0.5u
X2 ZN I VDD VNW pfet_06v0 ad=0.378p pd=1.84u as=0.537p ps=3.32u w=1.22u l=0.5u
X3 VSS I ZN VSUBS nfet_06v0 ad=0.211p pd=1.84u as=0.125p ps=1u w=0.48u l=0.6u
.ends

.subckt gf180mcu_fd_sc_mcu7t5v0__or3_1 A3 VDD VSS Z A1 A2 VNW VPW VSUBS
X0 a_224_604# A1 a_36_88# VNW pfet_06v0 ad=0.174p pd=1.18u as=0.246p ps=2u w=0.56u l=0.5u
X1 a_36_88# A2 VSS VSUBS nfet_06v0 ad=0.14p pd=1.1u as=0.104p ps=0.92u w=0.4u l=0.6u
X2 Z a_36_88# VDD VNW pfet_06v0 ad=0.537p pd=3.32u as=0.389p ps=2.02u w=1.22u l=0.5u
X3 VSS A1 a_36_88# VSUBS nfet_06v0 ad=0.104p pd=0.92u as=0.176p ps=1.68u w=0.4u l=0.6u
X4 a_448_604# A2 a_224_604# VNW pfet_06v0 ad=0.224p pd=1.36u as=0.174p ps=1.18u w=0.56u l=0.5u
X5 VSS A3 a_36_88# VSUBS nfet_06v0 ad=0.224p pd=1.52u as=0.14p ps=1.1u w=0.4u l=0.6u
X6 VDD A3 a_448_604# VNW pfet_06v0 ad=0.389p pd=2.02u as=0.224p ps=1.36u w=0.56u l=0.5u
X7 Z a_36_88# VSS VSUBS nfet_06v0 ad=0.361p pd=2.52u as=0.224p ps=1.52u w=0.82u l=0.6u
.ends

.subckt gf180mcu_fd_sc_mcu7t5v0__inv_4 VSS ZN I VDD VNW VPW VSUBS
X0 ZN I VDD VNW pfet_06v0 ad=0.439p pd=1.94u as=0.317p ps=1.74u w=1.22u l=0.5u
X1 ZN I VSS VSUBS nfet_06v0 ad=0.213p pd=1.34u as=0.213p ps=1.34u w=0.82u l=0.6u
X2 ZN I VSS VSUBS nfet_06v0 ad=0.213p pd=1.34u as=0.361p ps=2.52u w=0.82u l=0.6u
X3 VDD I ZN VNW pfet_06v0 ad=0.537p pd=3.32u as=0.439p ps=1.94u w=1.22u l=0.5u
X4 VSS I ZN VSUBS nfet_06v0 ad=0.361p pd=2.52u as=0.213p ps=1.34u w=0.82u l=0.6u
X5 ZN I VDD VNW pfet_06v0 ad=0.439p pd=1.94u as=0.537p ps=3.32u w=1.22u l=0.5u
X6 VSS I ZN VSUBS nfet_06v0 ad=0.213p pd=1.34u as=0.213p ps=1.34u w=0.82u l=0.6u
X7 VDD I ZN VNW pfet_06v0 ad=0.317p pd=1.74u as=0.439p ps=1.94u w=1.22u l=0.5u
.ends

.subckt gf180mcu_fd_sc_mcu7t5v0__nor4_4 A3 A4 VDD VSS ZN A1 A2 VNW VPW VSUBS
X0 a_66_473# A3 a_692_473# VNW pfet_06v0 ad=0.486p pd=2.02u as=0.486p ps=2.02u w=1.22u l=0.5u
X1 VSS A3 ZN VSUBS nfet_06v0 ad=0.126p pd=1.06u as=0.126p ps=1.06u w=0.36u l=0.6u
X2 a_2180_473# A2 a_1920_473# VNW pfet_06v0 ad=0.486p pd=2.02u as=0.486p ps=2.02u w=1.22u l=0.5u
X3 a_3220_473# A2 a_66_473# VNW pfet_06v0 ad=0.486p pd=2.02u as=0.486p ps=2.02u w=1.22u l=0.5u
X4 a_3740_473# A1 ZN VNW pfet_06v0 ad=0.456p pd=1.96u as=0.486p ps=2.02u w=1.22u l=0.5u
X5 a_1212_473# A3 a_66_473# VNW pfet_06v0 ad=0.377p pd=1.83u as=0.486p ps=2.02u w=1.22u l=0.5u
X6 VSS A3 ZN VSUBS nfet_06v0 ad=0.126p pd=1.06u as=0.126p ps=1.06u w=0.36u l=0.6u
X7 a_66_473# A2 a_2700_473# VNW pfet_06v0 ad=0.486p pd=2.02u as=0.486p ps=2.02u w=1.22u l=0.5u
X8 a_66_473# A2 a_3740_473# VNW pfet_06v0 ad=0.535p pd=3.31u as=0.456p ps=1.96u w=1.22u l=0.5u
X9 ZN A1 a_2180_473# VNW pfet_06v0 ad=0.486p pd=2.02u as=0.486p ps=2.02u w=1.22u l=0.5u
X10 ZN A2 VSS VSUBS nfet_06v0 ad=0.126p pd=1.06u as=0.126p ps=1.06u w=0.36u l=0.6u
X11 VDD A4 a_254_473# VNW pfet_06v0 ad=0.377p pd=1.83u as=0.346p ps=1.78u w=1.22u l=0.5u
X12 VSS A4 ZN VSUBS nfet_06v0 ad=93.6f pd=0.88u as=93.6f ps=0.88u w=0.36u l=0.6u
X13 ZN A1 VSS VSUBS nfet_06v0 ad=0.126p pd=1.06u as=0.126p ps=1.06u w=0.36u l=0.6u
X14 a_1660_473# A4 VDD VNW pfet_06v0 ad=0.486p pd=2.02u as=0.377p ps=1.83u w=1.22u l=0.5u
X15 a_2700_473# A1 ZN VNW pfet_06v0 ad=0.486p pd=2.02u as=0.486p ps=2.02u w=1.22u l=0.5u
X16 VSS A1 ZN VSUBS nfet_06v0 ad=0.126p pd=1.06u as=0.126p ps=1.06u w=0.36u l=0.6u
X17 a_254_473# A3 a_66_473# VNW pfet_06v0 ad=0.346p pd=1.78u as=0.535p ps=3.31u w=1.22u l=0.5u