* NGSPICE file created from ldo_pex.ext - technology: gf180mcuD

.subckt ldo_pex vdd ref iref out vss
X0 out ota_0.vout vdd vdd pfet_03v3 ad=3.8988p pd=13.77u as=4.814p ps=13.61u w=4.38u l=0.5u
X1 out ota_0.vout vdd vdd pfet_03v3 ad=3.8988p pd=13.77u as=6.322p ps=16.92u w=4.38u l=0.5u
X2 out ota_0.vout vdd vdd pfet_03v3 ad=5.163599p pd=17.56u as=6.322p ps=16.92u w=4.38u l=0.5u
X3 out ota_0.vout vdd vdd pfet_03v3 ad=3.8988p pd=13.77u as=4.814p ps=13.61u w=4.38u l=0.5u
X4 out ota_0.vout vdd vdd pfet_03v3 ad=3.8988p pd=13.77u as=6.322p ps=16.92u w=4.38u l=0.5u
X5 vdd ota_0.vout out vdd pfet_03v3 ad=6.322p pd=16.92u as=5.163599p ps=17.56u w=4.38u l=0.5u
X6 out ota_0.vout vdd vdd pfet_03v3 ad=3.8988p pd=13.77u as=6.322p ps=16.92u w=4.38u l=0.5u
X7 out ota_0.vout vdd vdd pfet_03v3 ad=5.163599p pd=17.56u as=6.322p ps=16.92u w=4.38u l=0.5u
X8 out ota_0.vout vdd vdd pfet_03v3 ad=5.163599p pd=17.56u as=6.322p ps=16.92u w=4.38u l=0.5u
X9 out ota_0.vout vdd vdd pfet_03v3 ad=5.163599p pd=17.56u as=6.322p ps=16.92u w=4.38u l=0.5u
X10 vdd ota_0.vout out vdd pfet_03v3 ad=6.322p pd=16.92u as=5.163599p ps=17.56u w=4.38u l=0.5u
X11 vdd ota_0.vout out vdd pfet_03v3 ad=6.322p pd=16.92u as=5.163599p ps=17.56u w=4.38u l=0.5u
X12 vdd ota_0.vout out vdd pfet_03v3 ad=6.322p pd=16.92u as=5.163599p ps=17.56u w=4.38u l=0.5u
X13 out ota_0.vout vdd vdd pfet_03v3 ad=5.163599p pd=17.56u as=6.322p ps=16.92u w=4.38u l=0.5u
X14 vdd ota_0.vout out vdd pfet_03v3 ad=6.322p pd=16.92u as=5.163599p ps=17.56u w=4.38u l=0.5u
X15 vdd ota_0.vout out vdd pfet_03v3 ad=6.322p pd=16.92u as=5.163599p ps=17.56u w=4.38u l=0.5u
X16 vdd ota_0.vout out vdd pfet_03v3 ad=6.322p pd=16.92u as=5.163599p ps=17.56u w=4.38u l=0.5u
X17 vdd ota_0.vout out vdd pfet_03v3 ad=4.814p pd=13.61u as=3.8988p ps=13.77u w=4.38u l=0.5u
X18 out ota_0.vout vdd vdd pfet_03v3 ad=5.163599p pd=17.56u as=6.322p ps=16.92u w=4.38u l=0.5u
X19 vdd ota_0.vout out vdd pfet_03v3 ad=6.322p pd=16.92u as=5.163599p ps=17.56u w=4.38u l=0.5u
X20 out ota_0.vout vdd vdd pfet_03v3 ad=5.163599p pd=17.56u as=6.322p ps=16.92u w=4.38u l=0.5u
X21 out ota_0.vout vdd vdd pfet_03v3 ad=5.163599p pd=17.56u as=6.322p ps=16.92u w=4.38u l=0.5u
X22 out ota_0.vout vdd vdd pfet_03v3 ad=5.163599p pd=17.56u as=6.322p ps=16.92u w=4.38u l=0.5u
X23 vdd ota_0.vout out vdd pfet_03v3 ad=6.322p pd=16.92u as=5.163599p ps=17.56u w=4.38u l=0.5u
X24 vdd a_30609_n8101# a_30609_n8101# vdd pfet_03v3 ad=1.3p pd=5.52u as=1.3p ps=5.52u w=5u l=1u
X25 out ota_0.vout vdd vdd pfet_03v3 ad=5.163599p pd=17.56u as=6.322p ps=16.92u w=4.38u l=0.5u
X26 out ota_0.vout vdd vdd pfet_03v3 ad=5.163599p pd=17.56u as=6.322p ps=16.92u w=4.38u l=0.5u
X27 vdd ota_0.vout out vdd pfet_03v3 ad=6.322p pd=16.92u as=5.163599p ps=17.56u w=4.38u l=0.5u
X28 vss iref iref vss nfet_03v3 ad=0.65p pd=3.02u as=0.65p ps=3.02u w=2.5u l=1u
X29 out ota_0.vout vdd vdd pfet_03v3 ad=5.163599p pd=17.56u as=6.322p ps=16.92u w=4.38u l=0.5u
X30 vdd ota_0.vout out vdd pfet_03v3 ad=4.814p pd=13.61u as=3.8988p ps=13.77u w=4.38u l=0.5u
X31 vdd ota_0.vout out vdd pfet_03v3 ad=6.322p pd=16.92u as=5.163599p ps=17.56u w=4.38u l=0.5u
X32 vdd ota_0.vout out vdd pfet_03v3 ad=6.322p pd=16.92u as=5.163599p ps=17.56u w=4.38u l=0.5u
X33 out ota_0.vout vdd vdd pfet_03v3 ad=5.163599p pd=17.56u as=6.322p ps=16.92u w=4.38u l=0.5u
X34 vdd ota_0.vout out vdd pfet_03v3 ad=6.322p pd=16.92u as=5.163599p ps=17.56u w=4.38u l=0.5u
X35 out ota_0.vout vdd vdd pfet_03v3 ad=5.163599p pd=17.56u as=6.322p ps=16.92u w=4.38u l=0.5u
X36 out ota_0.vout vdd vdd pfet_03v3 ad=5.163599p pd=17.56u as=6.322p ps=16.92u w=4.38u l=0.5u
X37 out ota_0.vout vdd vdd pfet_03v3 ad=5.163599p pd=17.56u as=6.322p ps=16.92u w=4.38u l=0.5u
X38 out ota_0.vout vdd vdd pfet_03v3 ad=5.163599p pd=17.56u as=6.322p ps=16.92u w=4.38u l=0.5u
X39 vdd ota_0.vout out vdd pfet_03v3 ad=6.322p pd=16.92u as=5.163599p ps=17.56u w=4.38u l=0.5u
X40 out ota_0.vout vdd vdd pfet_03v3 ad=5.163599p pd=17.56u as=4.814p ps=13.61u w=4.38u l=0.5u
X41 out ota_0.vout vdd vdd pfet_03v3 ad=5.163599p pd=17.56u as=6.322p ps=16.92u w=4.38u l=0.5u
X42 vdd ota_0.vout out vdd pfet_03v3 ad=6.322p pd=16.92u as=5.163599p ps=17.56u w=4.38u l=0.5u
X43 out ota_0.vout vdd vdd pfet_03v3 ad=5.163599p pd=17.56u as=6.322p ps=16.92u w=4.38u l=0.5u
X44 out ota_0.vout vdd vdd pfet_03v3 ad=5.163599p pd=17.56u as=6.322p ps=16.92u w=4.38u l=0.5u
X45 out ota_0.vout vdd vdd pfet_03v3 ad=5.163599p pd=17.56u as=6.322p ps=16.92u w=4.38u l=0.5u
X46 vdd ota_0.vout out vdd pfet_03v3 ad=6.322p pd=16.92u as=5.163599p ps=17.56u w=4.38u l=0.5u
X47 out ota_0.vout vdd vdd pfet_03v3 ad=5.163599p pd=17.56u as=6.322p ps=16.92u w=4.38u l=0.5u
X48 out ota_0.vout vdd vdd pfet_03v3 ad=5.163599p pd=17.56u as=6.322p ps=16.92u w=4.38u l=0.5u
X49 out ota_0.vout vdd vdd pfet_03v3 ad=5.163599p pd=17.56u as=6.322p ps=16.92u w=4.38u l=0.5u
X50 vdd ota_0.vout out vdd pfet_03v3 ad=6.322p pd=16.92u as=5.163599p ps=17.56u w=4.38u l=0.5u
X51 out ota_0.vout vdd vdd pfet_03v3 ad=5.163599p pd=17.56u as=6.322p ps=16.92u w=4.38u l=0.5u
X52 vdd a_27444_n7588# ota_0.vout vdd pfet_03v3 ad=6.5p pd=25.519999u as=6.5p ps=25.519999u w=25u l=1u
X53 out ota_0.vout vdd vdd pfet_03v3 ad=5.163599p pd=17.56u as=6.322p ps=16.92u w=4.38u l=0.5u
X54 out ota_0.vout vdd vdd pfet_03v3 ad=5.163599p pd=17.56u as=6.322p ps=16.92u w=4.38u l=0.5u
X55 vdd ota_0.vout out vdd pfet_03v3 ad=6.322p pd=16.92u as=5.163599p ps=17.56u w=4.38u l=0.5u
X56 vdd ota_0.vout out vdd pfet_03v3 ad=3.2335p pd=9.38u as=3.8988p ps=13.77u w=4.38u l=0.5u
X57 vdd ota_0.vout out vdd pfet_03v3 ad=6.322p pd=16.92u as=5.163599p ps=17.56u w=4.38u l=0.5u
X58 out ota_0.vout vdd vdd pfet_03v3 ad=5.163599p pd=17.56u as=6.322p ps=16.92u w=4.38u l=0.5u
X59 a_27099_13820# a_31227_14420# vss ppolyf_u_1k r_width=1u r_length=20u
X60 vdd ota_0.vout out vdd pfet_03v3 ad=4.814p pd=13.61u as=3.8988p ps=13.77u w=4.38u l=0.5u
X61 out ota_0.vout vdd vdd pfet_03v3 ad=5.163599p pd=17.56u as=6.322p ps=16.92u w=4.38u l=0.5u
X62 vdd ota_0.vout out vdd pfet_03v3 ad=6.322p pd=16.92u as=5.163599p ps=17.56u w=4.38u l=0.5u
X63 out ota_0.vout vdd vdd pfet_03v3 ad=5.163599p pd=17.56u as=6.322p ps=16.92u w=4.38u l=0.5u
X64 out ota_0.vout vdd vdd pfet_03v3 ad=3.8988p pd=13.77u as=4.814p ps=13.61u w=4.38u l=0.5u
X65 vdd ota_0.vout out vdd pfet_03v3 ad=6.322p pd=16.92u as=5.163599p ps=17.56u w=4.38u l=0.5u
X66 vdd ota_0.vout out vdd pfet_03v3 ad=6.322p pd=16.92u as=5.163599p ps=17.56u w=4.38u l=0.5u
X67 vdd ota_0.vout out vdd pfet_03v3 ad=6.322p pd=16.92u as=5.163599p ps=17.56u w=4.38u l=0.5u
X68 out ota_0.vout vdd vdd pfet_03v3 ad=5.163599p pd=17.56u as=6.322p ps=16.92u w=4.38u l=0.5u
X69 out ota_0.vout vdd vdd pfet_03v3 ad=5.163599p pd=17.56u as=6.322p ps=16.92u w=4.38u l=0.5u
X70 vdd ota_0.vout out vdd pfet_03v3 ad=6.322p pd=16.92u as=3.8988p ps=13.77u w=4.38u l=0.5u
X71 vdd ota_0.vout out vdd pfet_03v3 ad=6.322p pd=16.92u as=5.163599p ps=17.56u w=4.38u l=0.5u
X72 vdd ota_0.vout out vdd pfet_03v3 ad=6.322p pd=16.92u as=5.163599p ps=17.56u w=4.38u l=0.5u
X73 vdd ota_0.vout out vdd pfet_03v3 ad=6.322p pd=16.92u as=3.8988p ps=13.77u w=4.38u l=0.5u
X74 out ota_0.vout vdd vdd pfet_03v3 ad=5.163599p pd=17.56u as=6.322p ps=16.92u w=4.38u l=0.5u
X75 vdd ota_0.vout out vdd pfet_03v3 ad=4.814p pd=13.61u as=3.8988p ps=13.77u w=4.38u l=0.5u
X76 out ota_0.vout vdd vdd pfet_03v3 ad=5.163599p pd=17.56u as=6.322p ps=16.92u w=4.38u l=0.5u
X77 out ota_0.vout vdd vdd pfet_03v3 ad=5.163599p pd=17.56u as=4.814p ps=13.61u w=4.38u l=0.5u
X78 a_27444_n7588# a_30609_n8101# vdd vdd pfet_03v3 ad=1.3p pd=5.52u as=1.3p ps=5.52u w=5u l=1u
X79 vdd ota_0.vout out vdd pfet_03v3 ad=6.322p pd=16.92u as=5.163599p ps=17.56u w=4.38u l=0.5u
X80 out ota_0.vout vdd vdd pfet_03v3 ad=5.163599p pd=17.56u as=6.322p ps=16.92u w=4.38u l=0.5u
X81 out ota_0.vout vdd vdd pfet_03v3 ad=5.163599p pd=17.56u as=6.322p ps=16.92u w=4.38u l=0.5u
X82 out ota_0.vout vdd vdd pfet_03v3 ad=5.163599p pd=17.56u as=6.322p ps=16.92u w=4.38u l=0.5u
X83 vdd ota_0.vout out vdd pfet_03v3 ad=6.322p pd=16.92u as=5.163599p ps=17.56u w=4.38u l=0.5u
X84 vdd ota_0.vout out vdd pfet_03v3 ad=6.322p pd=16.92u as=5.163599p ps=17.56u w=4.38u l=0.5u
X85 vdd ota_0.vout out vdd pfet_03v3 ad=4.814p pd=13.61u as=5.163599p ps=17.56u w=4.38u l=0.5u
X86 vdd ota_0.vout out vdd pfet_03v3 ad=6.322p pd=16.92u as=5.163599p ps=17.56u w=4.38u l=0.5u
X87 vdd ota_0.vout out vdd pfet_03v3 ad=6.322p pd=16.92u as=5.163599p ps=17.56u w=4.38u l=0.5u
X88 out ota_0.vout vdd vdd pfet_03v3 ad=5.163599p pd=17.56u as=6.322p ps=16.92u w=4.38u l=0.5u
X89 vdd ota_0.vout out vdd pfet_03v3 ad=4.814p pd=13.61u as=5.163599p ps=17.56u w=4.38u l=0.5u
X90 vdd ota_0.vout out vdd pfet_03v3 ad=6.322p pd=16.92u as=5.163599p ps=17.56u w=4.38u l=0.5u
X91 vdd ota_0.vout out vdd pfet_03v3 ad=6.322p pd=16.92u as=5.163599p ps=17.56u w=4.38u l=0.5u
X92 out ota_0.vout vdd vdd pfet_03v3 ad=5.163599p pd=17.56u as=6.322p ps=16.92u w=4.38u l=0.5u
X93 vdd ota_0.vout out vdd pfet_03v3 ad=6.322p pd=16.92u as=3.8988p ps=13.77u w=4.38u l=0.5u
X94 out ota_0.vout vdd vdd pfet_03v3 ad=5.163599p pd=17.56u as=6.322p ps=16.92u w=4.38u l=0.5u
X95 vdd ota_0.vout out vdd pfet_03v3 ad=6.322p pd=16.92u as=5.163599p ps=17.56u w=4.38u l=0.5u
X96 out ota_0.vout vdd vdd pfet_03v3 ad=5.163599p pd=17.56u as=6.322p ps=16.92u w=4.38u l=0.5u
X97 vdd ota_0.vout out vdd pfet_03v3 ad=6.322p pd=16.92u as=5.163599p ps=17.56u w=4.38u l=0.5u
X98 out ota_0.vout vdd vdd pfet_03v3 ad=5.163599p pd=17.56u as=6.322p ps=16.92u w=4.38u l=0.5u
X99 vdd ota_0.vout out vdd pfet_03v3 ad=6.322p pd=16.92u as=5.163599p ps=17.56u w=4.38u l=0.5u
X100 vdd ota_0.vout out vdd pfet_03v3 ad=6.322p pd=16.92u as=5.163599p ps=17.56u w=4.38u l=0.5u
X101 out ota_0.vout vdd vdd pfet_03v3 ad=5.163599p pd=17.56u as=6.322p ps=16.92u w=4.38u l=0.5u
X102 vdd ota_0.vout out vdd pfet_03v3 ad=6.322p pd=16.92u as=5.163599p ps=17.56u w=4.38u l=0.5u
X103 out ota_0.vout vdd vdd pfet_03v3 ad=5.163599p pd=17.56u as=6.322p ps=16.92u w=4.38u l=0.5u
X104 out ota_0.vout vdd vdd pfet_03v3 ad=5.163599p pd=17.56u as=6.322p ps=16.92u w=4.38u l=0.5u
X105 vdd ota_0.vout out vdd pfet_03v3 ad=6.322p pd=16.92u as=5.163599p ps=17.56u w=4.38u l=0.5u
X106 out ota_0.vout vdd vdd pfet_03v3 ad=5.163599p pd=17.56u as=6.322p ps=16.92u w=4.38u l=0.5u
X107 out ota_0.vout vdd vdd pfet_03v3 ad=5.163599p pd=17.56u as=6.322p ps=16.92u w=4.38u l=0.5u
X108 out ota_0.vout vdd vdd pfet_03v3 ad=5.163599p pd=17.56u as=6.322p ps=16.92u w=4.38u l=0.5u
X109 out ota_0.vout vdd vdd pfet_03v3 ad=5.163599p pd=17.56u as=6.322p ps=16.92u w=4.38u l=0.5u
X110 out ota_0.vout vdd vdd pfet_03v3 ad=5.163599p pd=17.56u as=6.322p ps=16.92u w=4.38u l=0.5u
X111 out ota_0.vout vdd vdd pfet_03v3 ad=5.163599p pd=17.56u as=6.322p ps=16.92u w=4.38u l=0.5u
X112 vdd ota_0.vout out vdd pfet_03v3 ad=6.322p pd=16.92u as=5.163599p ps=17.56u w=4.38u l=0.5u
X113 vdd ota_0.vout out vdd pfet_03v3 ad=6.322p pd=16.92u as=5.163599p ps=17.56u w=4.38u l=0.5u
X114 out ota_0.vout vdd vdd pfet_03v3 ad=5.163599p pd=17.56u as=4.814p ps=13.61u w=4.38u l=0.5u
X115 out ota_0.vout vdd vdd pfet_03v3 ad=5.163599p pd=17.56u as=6.322p ps=16.92u w=4.38u l=0.5u
X116 out ota_0.vout vdd vdd pfet_03v3 ad=5.163599p pd=17.56u as=6.322p ps=16.92u w=4.38u l=0.5u
X117 out ota_0.vout vdd vdd pfet_03v3 ad=5.163599p pd=17.56u as=6.322p ps=16.92u w=4.38u l=0.5u
X118 vdd ota_0.vout out vdd pfet_03v3 ad=6.322p pd=16.92u as=5.163599p ps=17.56u w=4.38u l=0.5u
X119 out ota_0.vout vdd vdd pfet_03v3 ad=5.163599p pd=17.56u as=6.322p ps=16.92u w=4.38u l=0.5u
X120 out ota_0.vout vdd vdd pfet_03v3 ad=5.163599p pd=17.56u as=6.322p ps=16.92u w=4.38u l=0.5u
X121 out ota_0.vout vdd vdd pfet_03v3 ad=5.163599p pd=17.56u as=6.322p ps=16.92u w=4.38u l=0.5u
X122 vdd ota_0.vout out vdd pfet_03v3 ad=6.322p pd=16.92u as=5.163599p ps=17.56u w=4.38u l=0.5u
X123 out ota_0.vout vdd vdd pfet_03v3 ad=5.163599p pd=17.56u as=6.322p ps=16.92u w=4.38u l=0.5u
X124 vdd ota_0.vout out vdd pfet_03v3 ad=6.322p pd=16.92u as=5.163599p ps=17.56u w=4.38u l=0.5u
X125 vdd ota_0.vout out vdd pfet_03v3 ad=6.322p pd=16.92u as=5.163599p ps=17.56u w=4.38u l=0.5u
X126 vdd ota_0.vout out vdd pfet_03v3 ad=4.814p pd=13.61u as=3.8988p ps=13.77u w=4.38u l=0.5u
X127 vdd ota_0.vout out vdd pfet_03v3 ad=6.322p pd=16.92u as=3.8988p ps=13.77u w=4.38u l=0.5u
X128 out ota_0.vout vdd vdd pfet_03v3 ad=5.163599p pd=17.56u as=6.322p ps=16.92u w=4.38u l=0.5u
X129 out ota_0.vout vdd vdd pfet_03v3 ad=5.163599p pd=17.56u as=6.322p ps=16.92u w=4.38u l=0.5u
X130 vdd ota_0.vout out vdd pfet_03v3 ad=6.322p pd=16.92u as=5.163599p ps=17.56u w=4.38u l=0.5u
X131 vdd ota_0.vout out vdd pfet_03v3 ad=6.322p pd=16.92u as=5.163599p ps=17.56u w=4.38u l=0.5u
X132 out ota_0.vout vdd vdd pfet_03v3 ad=5.163599p pd=17.56u as=6.322p ps=16.92u w=4.38u l=0.5u
X133 vdd ota_0.vout out vdd pfet_03v3 ad=6.322p pd=16.92u as=5.163599p ps=17.56u w=4.38u l=0.5u
X134 vdd ota_0.vout out vdd pfet_03v3 ad=6.322p pd=16.92u as=5.163599p ps=17.56u w=4.38u l=0.5u
X135 out ota_0.vout vdd vdd pfet_03v3 ad=5.163599p pd=17.56u as=6.322p ps=16.92u w=4.38u l=0.5u
X136 vdd ota_0.vout out vdd pfet_03v3 ad=6.322p pd=16.92u as=3.8988p ps=13.77u w=4.38u l=0.5u
X137 out ota_0.vout vdd vdd pfet_03v3 ad=5.163599p pd=17.56u as=6.322p ps=16.92u w=4.38u l=0.5u
X138 vdd ota_0.vout out vdd pfet_03v3 ad=6.322p pd=16.92u as=5.163599p ps=17.56u w=4.38u l=0.5u
X139 vdd ota_0.vout out vdd pfet_03v3 ad=6.322p pd=16.92u as=5.163599p ps=17.56u w=4.38u l=0.5u
X140 vdd ota_0.vout out vdd pfet_03v3 ad=6.322p pd=16.92u as=5.163599p ps=17.56u w=4.38u l=0.5u
X141 out ota_0.vout vdd vdd pfet_03v3 ad=5.163599p pd=17.56u as=6.322p ps=16.92u w=4.38u l=0.5u
X142 out ota_0.vout vdd vdd pfet_03v3 ad=5.163599p pd=17.56u as=6.322p ps=16.92u w=4.38u l=0.5u
X143 out ota_0.vout vdd vdd pfet_03v3 ad=3.8988p pd=13.77u as=4.814p ps=13.61u w=4.38u l=0.5u
X144 out ota_0.vout vdd vdd pfet_03v3 ad=5.163599p pd=17.56u as=6.322p ps=16.92u w=4.38u l=0.5u
X145 vdd ota_0.vout out vdd pfet_03v3 ad=6.322p pd=16.92u as=5.163599p ps=17.56u w=4.38u l=0.5u
X146 out ota_0.vout vdd vdd pfet_03v3 ad=5.163599p pd=17.56u as=6.322p ps=16.92u w=4.38u l=0.5u
X147 vdd ota_0.vout out vdd pfet_03v3 ad=6.322p pd=16.92u as=5.163599p ps=17.56u w=4.38u l=0.5u
X148 vdd ota_0.vout out vdd pfet_03v3 ad=6.322p pd=16.92u as=5.163599p ps=17.56u w=4.38u l=0.5u
X149 vdd ota_0.vout out vdd pfet_03v3 ad=6.322p pd=16.92u as=5.163599p ps=17.56u w=4.38u l=0.5u
X150 out ota_0.vout vdd vdd pfet_03v3 ad=5.163599p pd=17.56u as=6.322p ps=16.92u w=4.38u l=0.5u
X151 vdd ota_0.vout out vdd pfet_03v3 ad=6.322p pd=16.92u as=5.163599p ps=17.56u w=4.38u l=0.5u
X152 out ota_0.vout vdd vdd pfet_03v3 ad=5.163599p pd=17.56u as=6.322p ps=16.92u w=4.38u l=0.5u
X153 vdd ota_0.vout out vdd pfet_03v3 ad=6.322p pd=16.92u as=5.163599p ps=17.56u w=4.38u l=0.5u
X154 out ota_0.vout vdd vdd pfet_03v3 ad=5.163599p pd=17.56u as=6.322p ps=16.92u w=4.38u l=0.5u
X155 vdd ota_0.vout out vdd pfet_03v3 ad=6.322p pd=16.92u as=5.163599p ps=17.56u w=4.38u l=0.5u
X156 vdd ota_0.vout out vdd pfet_03v3 ad=6.322p pd=16.92u as=5.163599p ps=17.56u w=4.38u l=0.5u
X157 vdd ota_0.vout out vdd pfet_03v3 ad=6.322p pd=16.92u as=5.163599p ps=17.56u w=4.38u l=0.5u
X158 vdd ota_0.vout out vdd pfet_03v3 ad=6.322p pd=16.92u as=5.163599p ps=17.56u w=4.38u l=0.5u
X159 vdd ota_0.vout out vdd pfet_03v3 ad=6.322p pd=16.92u as=5.163599p ps=17.56u w=4.38u l=0.5u
X160 out ota_0.vout vdd vdd pfet_03v3 ad=5.163599p pd=17.56u as=6.322p ps=16.92u w=4.38u l=0.5u
X161 vdd ota_0.vout out vdd pfet_03v3 ad=6.322p pd=16.92u as=5.163599p ps=17.56u w=4.38u l=0.5u
X162 out ota_0.vout vdd vdd pfet_03v3 ad=5.163599p pd=17.56u as=6.322p ps=16.92u w=4.38u l=0.5u
X163 out ota_0.vout vdd vdd pfet_03v3 ad=5.163599p pd=17.56u as=6.322p ps=16.92u w=4.38u l=0.5u
X164 out ota_0.vout vdd vdd pfet_03v3 ad=3.8988p pd=13.77u as=4.814p ps=13.61u w=4.38u l=0.5u
X165 vdd ota_0.vout out vdd pfet_03v3 ad=6.322p pd=16.92u as=5.163599p ps=17.56u w=4.38u l=0.5u
X166 vdd ota_0.vout out vdd pfet_03v3 ad=6.322p pd=16.92u as=3.8988p ps=13.77u w=4.38u l=0.5u
X167 vdd ota_0.vout out vdd pfet_03v3 ad=6.322p pd=16.92u as=5.163599p ps=17.56u w=4.38u l=0.5u
X168 out ota_0.vout vdd vdd pfet_03v3 ad=5.163599p pd=17.56u as=6.322p ps=16.92u w=4.38u l=0.5u
X169 out ota_0.vout vdd vdd pfet_03v3 ad=5.163599p pd=17.56u as=6.322p ps=16.92u w=4.38u l=0.5u
X170 out ota_0.vout vdd vdd pfet_03v3 ad=5.163599p pd=17.56u as=6.322p ps=16.92u w=4.38u l=0.5u
X171 vdd ota_0.vout out vdd pfet_03v3 ad=6.322p pd=16.92u as=5.163599p ps=17.56u w=4.38u l=0.5u
X172 out ota_0.vout vdd vdd pfet_03v3 ad=5.163599p pd=17.56u as=6.322p ps=16.92u w=4.38u l=0.5u
X173 out ota_0.vout vdd vdd pfet_03v3 ad=5.163599p pd=17.56u as=6.322p ps=16.92u w=4.38u l=0.5u
X174 out ota_0.vout vdd vdd pfet_03v3 ad=5.163599p pd=17.56u as=6.322p ps=16.92u w=4.38u l=0.5u
X175 vss vss vss vss nfet_03v3 ad=0.65p pd=3.02u as=33.475p ps=0.14433m w=2.5u l=1u
X176 vdd ota_0.vout out vdd pfet_03v3 ad=6.322p pd=16.92u as=5.163599p ps=17.56u w=4.38u l=0.5u
X177 out ota_0.vout vdd vdd pfet_03v3 ad=5.163599p pd=17.56u as=6.322p ps=16.92u w=4.38u l=0.5u
X178 vdd ota_0.vout out vdd pfet_03v3 ad=4.814p pd=13.61u as=5.163599p ps=17.56u w=4.38u l=0.5u
X179 out ota_0.vout vdd vdd pfet_03v3 ad=5.163599p pd=17.56u as=6.322p ps=16.92u w=4.38u l=0.5u
X180 vdd ota_0.vout out vdd pfet_03v3 ad=4.814p pd=13.61u as=3.8988p ps=13.77u w=4.38u l=0.5u
X181 out ota_0.vout vdd vdd pfet_03v3 ad=5.163599p pd=17.56u as=4.814p ps=13.61u w=4.38u l=0.5u
X182 vdd ota_0.vout out vdd pfet_03v3 ad=6.322p pd=16.92u as=5.163599p ps=17.56u w=4.38u l=0.5u
X183 out ota_0.vout vdd vdd pfet_03v3 ad=5.163599p pd=17.56u as=6.322p ps=16.92u w=4.38u l=0.5u
X184 vdd ota_0.vout out vdd pfet_03v3 ad=6.322p pd=16.92u as=5.163599p ps=17.56u w=4.38u l=0.5u
X185 vdd ota_0.vout out vdd pfet_03v3 ad=6.322p pd=16.92u as=5.163599p ps=17.56u w=4.38u l=0.5u
X186 vdd ota_0.vout out vdd pfet_03v3 ad=6.322p pd=16.92u as=5.163599p ps=17.56u w=4.38u l=0.5u
X187 vdd ota_0.vout out vdd pfet_03v3 ad=6.322p pd=16.92u as=5.163599p ps=17.56u w=4.38u l=0.5u
X188 vdd ota_0.vout out vdd pfet_03v3 ad=6.322p pd=16.92u as=5.163599p ps=17.56u w=4.38u l=0.5u
X189 vdd ota_0.vout out vdd pfet_03v3 ad=6.322p pd=16.92u as=5.163599p ps=17.56u w=4.38u l=0.5u
X190 out ota_0.vout vdd vdd pfet_03v3 ad=5.163599p pd=17.56u as=6.322p ps=16.92u w=4.38u l=0.5u
X191 out ota_0.vout vdd vdd pfet_03v3 ad=5.163599p pd=17.56u as=6.322p ps=16.92u w=4.38u l=0.5u
X192 out ota_0.vout vdd vdd pfet_03v3 ad=5.163599p pd=17.56u as=6.322p ps=16.92u w=4.38u l=0.5u
X193 vdd ota_0.vout out vdd pfet_03v3 ad=6.322p pd=16.92u as=5.163599p ps=17.56u w=4.38u l=0.5u
X194 vdd ota_0.vout out vdd pfet_03v3 ad=6.322p pd=16.92u as=5.163599p ps=17.56u w=4.38u l=0.5u
X195 vdd ota_0.vout out vdd pfet_03v3 ad=6.322p pd=16.92u as=5.163599p ps=17.56u w=4.38u l=0.5u
X196 vdd ota_0.vout out vdd pfet_03v3 ad=6.322p pd=16.92u as=5.163599p ps=17.56u w=4.38u l=0.5u
X197 out ota_0.vout vdd vdd pfet_03v3 ad=5.163599p pd=17.56u as=6.322p ps=16.92u w=4.38u l=0.5u
X198 out ota_0.vout vdd vdd pfet_03v3 ad=5.163599p pd=17.56u as=6.322p ps=16.92u w=4.38u l=0.5u
X199 out ota_0.vout vdd vdd pfet_03v3 ad=5.163599p pd=17.56u as=6.322p ps=16.92u w=4.38u l=0.5u
X200 out ota_0.vout vdd vdd pfet_03v3 ad=5.163599p pd=17.56u as=6.322p ps=16.92u w=4.38u l=0.5u
X201 out ota_0.vout vdd vdd pfet_03v3 ad=5.163599p pd=17.56u as=6.322p ps=16.92u w=4.38u l=0.5u
X202 vdd ota_0.vout out vdd pfet_03v3 ad=6.322p pd=16.92u as=5.163599p ps=17.56u w=4.38u l=0.5u
X203 out ota_0.vout vdd vdd pfet_03v3 ad=5.163599p pd=17.56u as=6.322p ps=16.92u w=4.38u l=0.5u
X204 out ota_0.vout vdd vdd pfet_03v3 ad=5.163599p pd=17.56u as=6.322p ps=16.92u w=4.38u l=0.5u
X205 vdd ota_0.vout out vdd pfet_03v3 ad=6.322p pd=16.92u as=5.163599p ps=17.56u w=4.38u l=0.5u
X206 vdd ota_0.vout out vdd pfet_03v3 ad=6.322p pd=16.92u as=5.163599p ps=17.56u w=4.38u l=0.5u
X207 out ota_0.vout vdd vdd pfet_03v3 ad=5.163599p pd=17.56u as=6.322p ps=16.92u w=4.38u l=0.5u
X208 vdd ota_0.vout out vdd pfet_03v3 ad=6.322p pd=16.92u as=5.163599p ps=17.56u w=4.38u l=0.5u
X209 out ota_0.vout vdd vdd pfet_03v3 ad=3.8988p pd=13.77u as=4.814p ps=13.61u w=4.38u l=0.5u
X210 out ota_0.vout vdd vdd pfet_03v3 ad=3.8988p pd=13.77u as=4.814p ps=13.61u w=4.38u l=0.5u
X211 vss vss vss vss nfet_03v3 ad=1.525p pd=6.22u as=0 ps=0 w=2.5u l=1u
X212 vdd ota_0.vout out vdd pfet_03v3 ad=6.322p pd=16.92u as=5.163599p ps=17.56u w=4.38u l=0.5u
X213 vdd ota_0.vout out vdd pfet_03v3 ad=6.322p pd=16.92u as=5.163599p ps=17.56u w=4.38u l=0.5u
X214 vdd ota_0.vout out vdd pfet_03v3 ad=6.322p pd=16.92u as=5.163599p ps=17.56u w=4.38u l=0.5u
X215 vdd ota_0.vout out vdd pfet_03v3 ad=6.322p pd=16.92u as=5.163599p ps=17.56u w=4.38u l=0.5u
X216 out ota_0.vout vdd vdd pfet_03v3 ad=5.163599p pd=17.56u as=6.322p ps=16.92u w=4.38u l=0.5u
X217 vdd ota_0.vout out vdd pfet_03v3 ad=6.322p pd=16.92u as=5.163599p ps=17.56u w=4.38u l=0.5u
X218 vdd ota_0.vout out vdd pfet_03v3 ad=6.322p pd=16.92u as=5.163599p ps=17.56u w=4.38u l=0.5u
X219 vdd ota_0.vout out vdd pfet_03v3 ad=4.814p pd=13.61u as=3.8988p ps=13.77u w=4.38u l=0.5u
X220 out ota_0.vout vdd vdd pfet_03v3 ad=5.163599p pd=17.56u as=6.322p ps=16.92u w=4.38u l=0.5u
X221 vdd ota_0.vout out vdd pfet_03v3 ad=6.322p pd=16.92u as=5.163599p ps=17.56u w=4.38u l=0.5u
X222 vdd ota_0.vout out vdd pfet_03v3 ad=6.322p pd=16.92u as=5.163599p ps=17.56u w=4.38u l=0.5u
X223 out ota_0.vout vdd vdd pfet_03v3 ad=5.163599p pd=17.56u as=6.322p ps=16.92u w=4.38u l=0.5u
X224 out ota_0.vout vdd vdd pfet_03v3 ad=5.163599p pd=17.56u as=6.322p ps=16.92u w=4.38u l=0.5u
X225 out ota_0.vout vdd vdd pfet_03v3 ad=5.163599p pd=17.56u as=6.322p ps=16.92u w=4.38u l=0.5u
X226 vdd ota_0.vout out vdd pfet_03v3 ad=6.322p pd=16.92u as=5.163599p ps=17.56u w=4.38u l=0.5u
X227 vdd ota_0.vout out vdd pfet_03v3 ad=6.322p pd=16.92u as=5.163599p ps=17.56u w=4.38u l=0.5u
X228 vdd ota_0.vout out vdd pfet_03v3 ad=6.322p pd=16.92u as=5.163599p ps=17.56u w=4.38u l=0.5u
X229 out ota_0.vout vdd vdd pfet_03v3 ad=5.163599p pd=17.56u as=6.322p ps=16.92u w=4.38u l=0.5u
X230 out ota_0.vout vdd vdd pfet_03v3 ad=5.163599p pd=17.56u as=6.322p ps=16.92u w=4.38u l=0.5u
X231 out ota_0.vout vdd vdd pfet_03v3 ad=5.163599p pd=17.56u as=6.322p ps=16.92u w=4.38u l=0.5u
X232 out ota_0.vout vdd vdd pfet_03v3 ad=5.163599p pd=17.56u as=6.322p ps=16.92u w=4.38u l=0.5u
X233 out ota_0.vout vdd vdd pfet_03v3 ad=5.163599p pd=17.56u as=6.322p ps=16.92u w=4.38u l=0.5u
X234 vdd ota_0.vout out vdd pfet_03v3 ad=4.814p pd=13.61u as=5.163599p ps=17.56u w=4.38u l=0.5u
X235 vdd ota_0.vout out vdd pfet_03v3 ad=6.322p pd=16.92u as=5.163599p ps=17.56u w=4.38u l=0.5u
X236 vdd ota_0.vout out vdd pfet_03v3 ad=6.322p pd=16.92u as=5.163599p ps=17.56u w=4.38u l=0.5u
X237 out ota_0.vout vdd vdd pfet_03v3 ad=5.163599p pd=17.56u as=6.322p ps=16.92u w=4.38u l=0.5u
X238 vdd ota_0.vout out vdd pfet_03v3 ad=4.814p pd=13.61u as=3.8988p ps=13.77u w=4.38u l=0.5u
X239 out ota_0.vout vdd vdd pfet_03v3 ad=5.163599p pd=17.56u as=6.322p ps=16.92u w=4.38u l=0.5u
X240 out ota_0.vout vdd vdd pfet_03v3 ad=5.163599p pd=17.56u as=6.322p ps=16.92u w=4.38u l=0.5u
X241 out ota_0.vout vdd vdd pfet_03v3 ad=5.163599p pd=17.56u as=6.322p ps=16.92u w=4.38u l=0.5u
X242 vdd ota_0.vout out vdd pfet_03v3 ad=4.814p pd=13.61u as=3.8988p ps=13.77u w=4.38u l=0.5u
X243 out ota_0.vout vdd vdd pfet_03v3 ad=5.163599p pd=17.56u as=6.322p ps=16.92u w=4.38u l=0.5u
X244 vdd ota_0.vout out vdd pfet_03v3 ad=6.322p pd=16.92u as=5.163599p ps=17.56u w=4.38u l=0.5u
X245 out ota_0.vout vdd vdd pfet_03v3 ad=5.163599p pd=17.56u as=6.322p ps=16.92u w=4.38u l=0.5u
X246 vdd ota_0.vout out vdd pfet_03v3 ad=6.322p pd=16.92u as=3.8988p ps=13.77u w=4.38u l=0.5u
X247 vdd ota_0.vout out vdd pfet_03v3 ad=6.322p pd=16.92u as=5.163599p ps=17.56u w=4.38u l=0.5u
X248 vdd ota_0.vout out vdd pfet_03v3 ad=6.322p pd=16.92u as=5.163599p ps=17.56u w=4.38u l=0.5u
X249 out ota_0.vout vdd vdd pfet_03v3 ad=5.163599p pd=17.56u as=6.322p ps=16.92u w=4.38u l=0.5u
X250 out ota_0.vout vdd vdd pfet_03v3 ad=5.163599p pd=17.56u as=6.322p ps=16.92u w=4.38u l=0.5u
X251 out ota_0.vout vdd vdd pfet_03v3 ad=5.163599p pd=17.56u as=6.322p ps=16.92u w=4.38u l=0.5u
X252 vdd ota_0.vout out vdd pfet_03v3 ad=6.322p pd=16.92u as=5.163599p ps=17.56u w=4.38u l=0.5u
X253 out ota_0.vout vdd vdd pfet_03v3 ad=5.163599p pd=17.56u as=6.322p ps=16.92u w=4.38u l=0.5u
X254 vdd ota_0.vout out vdd pfet_03v3 ad=6.322p pd=16.92u as=5.163599p ps=17.56u w=4.38u l=0.5u
X255 out ota_0.vout vdd vdd pfet_03v3 ad=5.163599p pd=17.56u as=6.322p ps=16.92u w=4.38u l=0.5u
X256 out ota_0.vout vdd vdd pfet_03v3 ad=5.163599p pd=17.56u as=6.322p ps=16.92u w=4.38u l=0.5u
X257 out ota_0.vout vdd vdd pfet_03v3 ad=5.163599p pd=17.56u as=6.322p ps=16.92u w=4.38u l=0.5u
X258 vdd ota_0.vout out vdd pfet_03v3 ad=6.322p pd=16.92u as=5.163599p ps=17.56u w=4.38u l=0.5u
X259 vdd ota_0.vout out vdd pfet_03v3 ad=6.322p pd=16.92u as=5.163599p ps=17.56u w=4.38u l=0.5u
X260 out ota_0.vout vdd vdd pfet_03v3 ad=5.163599p pd=17.56u as=6.322p ps=16.92u w=4.38u l=0.5u
X261 vdd ota_0.vout out vdd pfet_03v3 ad=6.322p pd=16.92u as=5.163599p ps=17.56u w=4.38u l=0.5u
X262 vdd ota_0.vout out vdd pfet_03v3 ad=4.814p pd=13.61u as=3.8988p ps=13.77u w=4.38u l=0.5u
X263 vdd ota_0.vout out vdd pfet_03v3 ad=6.322p pd=16.92u as=5.163599p ps=17.56u w=4.38u l=0.5u
X264 vdd ota_0.vout out vdd pfet_03v3 ad=4.814p pd=13.61u as=5.163599p ps=17.56u w=4.38u l=0.5u
X265 vdd ota_0.vout out vdd pfet_03v3 ad=4.814p pd=13.61u as=2.6079p ps=9.38u w=4.38u l=0.5u
X266 vdd ota_0.vout out vdd pfet_03v3 ad=6.322p pd=16.92u as=5.163599p ps=17.56u w=4.38u l=0.5u
X267 vdd ota_0.vout out vdd pfet_03v3 ad=6.322p pd=16.92u as=5.163599p ps=17.56u w=4.38u l=0.5u
X268 out ota_0.vout vdd vdd pfet_03v3 ad=5.163599p pd=17.56u as=6.322p ps=16.92u w=4.38u l=0.5u
X269 out ota_0.vout vdd vdd pfet_03v3 ad=5.163599p pd=17.56u as=6.322p ps=16.92u w=4.38u l=0.5u
X270 vdd ota_0.vout out vdd pfet_03v3 ad=6.322p pd=16.92u as=5.163599p ps=17.56u w=4.38u l=0.5u
X271 vdd ota_0.vout out vdd pfet_03v3 ad=6.322p pd=16.92u as=5.163599p ps=17.56u w=4.38u l=0.5u
X272 vdd ota_0.vout out vdd pfet_03v3 ad=6.322p pd=16.92u as=5.163599p ps=17.56u w=4.38u l=0.5u
X273 vdd ota_0.vout out vdd pfet_03v3 ad=6.322p pd=16.92u as=5.163599p ps=17.56u w=4.38u l=0.5u
X274 vdd ota_0.vout out vdd pfet_03v3 ad=6.322p pd=16.92u as=5.163599p ps=17.56u w=4.38u l=0.5u
X275 out ota_0.vout vdd vdd pfet_03v3 ad=5.163599p pd=17.56u as=6.322p ps=16.92u w=4.38u l=0.5u
X276 vdd ota_0.vout out vdd pfet_03v3 ad=6.322p pd=16.92u as=5.163599p ps=17.56u w=4.38u l=0.5u
X277 ota_0.vout iref vss vss nfet_03v3 ad=0.65p pd=3.02u as=0.65p ps=3.02u w=2.5u l=1u
X278 out ota_0.vout vdd vdd pfet_03v3 ad=5.163599p pd=17.56u as=6.322p ps=16.92u w=4.38u l=0.5u
X279 out ota_0.vout vdd vdd pfet_03v3 ad=5.163599p pd=17.56u as=6.322p ps=16.92u w=4.38u l=0.5u
X280 vdd ota_0.vout out vdd pfet_03v3 ad=6.322p pd=16.92u as=5.163599p ps=17.56u w=4.38u l=0.5u
X281 vdd ota_0.vout out vdd pfet_03v3 ad=6.322p pd=16.92u as=5.163599p ps=17.56u w=4.38u l=0.5u
X282 vdd ota_0.vout out vdd pfet_03v3 ad=6.322p pd=16.92u as=5.163599p ps=17.56u w=4.38u l=0.5u
X283 out ota_0.vout vdd vdd pfet_03v3 ad=5.163599p pd=17.56u as=6.322p ps=16.92u w=4.38u l=0.5u
X284 out ota_0.vout vdd vdd pfet_03v3 ad=5.163599p pd=17.56u as=6.322p ps=16.92u w=4.38u l=0.5u
X285 out ota_0.vout vdd vdd pfet_03v3 ad=5.163599p pd=17.56u as=6.322p ps=16.92u w=4.38u l=0.5u
X286 out ota_0.vout vdd vdd pfet_03v3 ad=5.163599p pd=17.56u as=6.322p ps=16.92u w=4.38u l=0.5u
X287 out ota_0.vout vdd vdd pfet_03v3 ad=5.163599p pd=17.56u as=6.322p ps=16.92u w=4.38u l=0.5u
X288 vdd ota_0.vout out vdd pfet_03v3 ad=6.322p pd=16.92u as=5.163599p ps=17.56u w=4.38u l=0.5u
X289 out ota_0.vout vdd vdd pfet_03v3 ad=5.163599p pd=17.56u as=4.814p ps=13.61u w=4.38u l=0.5u
X290 vdd ota_0.vout out vdd pfet_03v3 ad=6.322p pd=16.92u as=5.163599p ps=17.56u w=4.38u l=0.5u
X291 vdd ota_0.vout out vdd pfet_03v3 ad=6.322p pd=16.92u as=5.163599p ps=17.56u w=4.38u l=0.5u
X292 out ota_0.vout vdd vdd pfet_03v3 ad=5.163599p pd=17.56u as=6.322p ps=16.92u w=4.38u l=0.5u
X293 out ota_0.vout vdd vdd pfet_03v3 ad=5.163599p pd=17.56u as=6.322p ps=16.92u w=4.38u l=0.5u
X294 vdd ota_0.vout out vdd pfet_03v3 ad=6.322p pd=16.92u as=5.163599p ps=17.56u w=4.38u l=0.5u
X295 vdd ota_0.vout out vdd pfet_03v3 ad=6.322p pd=16.92u as=5.163599p ps=17.56u w=4.38u l=0.5u
X296 vdd ota_0.vout out vdd pfet_03v3 ad=6.322p pd=16.92u as=5.163599p ps=17.56u w=4.38u l=0.5u
X297 vdd ota_0.vout out vdd pfet_03v3 ad=6.322p pd=16.92u as=5.163599p ps=17.56u w=4.38u l=0.5u
X298 a_27099_11420# a_31227_9620# vss ppolyf_u_1k r_width=1u r_length=20u
X299 out ota_0.vout vdd vdd pfet_03v3 ad=5.163599p pd=17.56u as=6.322p ps=16.92u w=4.38u l=0.5u
X300 vdd ota_0.vout out vdd pfet_03v3 ad=6.322p pd=16.92u as=5.163599p ps=17.56u w=4.38u l=0.5u
X301 vdd ota_0.vout out vdd pfet_03v3 ad=6.322p pd=16.92u as=5.163599p ps=17.56u w=4.38u l=0.5u
X302 vdd ota_0.vout out vdd pfet_03v3 ad=6.322p pd=16.92u as=5.163599p ps=17.56u w=4.38u l=0.5u
X303 vdd ota_0.vout out vdd pfet_03v3 ad=6.322p pd=16.92u as=5.163599p ps=17.56u w=4.38u l=0.5u
X304 out ota_0.vout vdd vdd pfet_03v3 ad=3.8988p pd=13.77u as=4.814p ps=13.61u w=4.38u l=0.5u
X305 out ota_0.vout vdd vdd pfet_03v3 ad=5.163599p pd=17.56u as=6.322p ps=16.92u w=4.38u l=0.5u
X306 out ota_0.vout vdd vdd pfet_03v3 ad=3.8988p pd=13.77u as=6.322p ps=16.92u w=4.38u l=0.5u
X307 out ota_0.vout vdd vdd pfet_03v3 ad=3.8988p pd=13.77u as=4.814p ps=13.61u w=4.38u l=0.5u
X308 out ota_0.vout vdd vdd pfet_03v3 ad=5.163599p pd=17.56u as=6.322p ps=16.92u w=4.38u l=0.5u
X309 vdd ota_0.vout out vdd pfet_03v3 ad=6.322p pd=16.92u as=5.163599p ps=17.56u w=4.38u l=0.5u
X310 vdd ota_0.vout out vdd pfet_03v3 ad=6.322p pd=16.92u as=5.163599p ps=17.56u w=4.38u l=0.5u
X311 out ota_0.vout vdd vdd pfet_03v3 ad=3.8988p pd=13.77u as=6.322p ps=16.92u w=4.38u l=0.5u
X312 vdd ota_0.vout out vdd pfet_03v3 ad=6.322p pd=16.92u as=5.163599p ps=17.56u w=4.38u l=0.5u
X313 out ota_0.vout vdd vdd pfet_03v3 ad=5.163599p pd=17.56u as=6.322p ps=16.92u w=4.38u l=0.5u