* NGSPICE file created from ldo_clean.ext - technology: gf180mcuD

.subckt waffle_1984 PW D S G
X0 S G D S pfet_03v3 ad=6.322p pd=16.92u as=5.163599p ps=17.56u w=4.38u l=0.5u
X1 S G D S pfet_03v3 ad=6.322p pd=16.92u as=5.163599p ps=17.56u w=4.38u l=0.5u
X2 D G S S pfet_03v3 ad=5.163599p pd=17.56u as=6.322p ps=16.92u w=4.38u l=0.5u
X3 S G D S pfet_03v3 ad=6.322p pd=16.92u as=5.163599p ps=17.56u w=4.38u l=0.5u
X4 D G S S pfet_03v3 ad=5.163599p pd=17.56u as=6.322p ps=16.92u w=4.38u l=0.5u
X5 S G D S pfet_03v3 ad=6.322p pd=16.92u as=5.163599p ps=17.56u w=4.38u l=0.5u
X6 S G D S pfet_03v3 ad=6.322p pd=16.92u as=3.8988p ps=13.77u w=4.38u l=0.5u
X7 D G S S pfet_03v3 ad=5.163599p pd=17.56u as=6.322p ps=16.92u w=4.38u l=0.5u
X8 D G S S pfet_03v3 ad=5.163599p pd=17.56u as=6.322p ps=16.92u w=4.38u l=0.5u
X9 D G S S pfet_03v3 ad=5.163599p pd=17.56u as=6.322p ps=16.92u w=4.38u l=0.5u
X10 S G D S pfet_03v3 ad=6.322p pd=16.92u as=5.163599p ps=17.56u w=4.38u l=0.5u
X11 D G S S pfet_03v3 ad=5.163599p pd=17.56u as=6.322p ps=16.92u w=4.38u l=0.5u
X12 S G D S pfet_03v3 ad=6.322p pd=16.92u as=5.163599p ps=17.56u w=4.38u l=0.5u
X13 D G S S pfet_03v3 ad=5.163599p pd=17.56u as=6.322p ps=16.92u w=4.38u l=0.5u
X14 S G D S pfet_03v3 ad=6.322p pd=16.92u as=5.163599p ps=17.56u w=4.38u l=0.5u
X15 S G D S pfet_03v3 ad=6.322p pd=16.92u as=5.163599p ps=17.56u w=4.38u l=0.5u
X16 S G D S pfet_03v3 ad=6.322p pd=16.92u as=5.163599p ps=17.56u w=4.38u l=0.5u
X17 S G D S pfet_03v3 ad=6.322p pd=16.92u as=5.163599p ps=17.56u w=4.38u l=0.5u
X18 D G S S pfet_03v3 ad=5.163599p pd=17.56u as=6.322p ps=16.92u w=4.38u l=0.5u
X19 D G S S pfet_03v3 ad=5.163599p pd=17.56u as=6.322p ps=16.92u w=4.38u l=0.5u
X20 D G S S pfet_03v3 ad=5.163599p pd=17.56u as=6.322p ps=16.92u w=4.38u l=0.5u
X21 D G S S pfet_03v3 ad=5.163599p pd=17.56u as=6.322p ps=16.92u w=4.38u l=0.5u
X22 S G D S pfet_03v3 ad=6.322p pd=16.92u as=5.163599p ps=17.56u w=4.38u l=0.5u
X23 S G D S pfet_03v3 ad=6.322p pd=16.92u as=5.163599p ps=17.56u w=4.38u l=0.5u
X24 S G D S pfet_03v3 ad=6.322p pd=16.92u as=5.163599p ps=17.56u w=4.38u l=0.5u
X25 S G D S pfet_03v3 ad=4.814p pd=13.61u as=2.6079p ps=9.38u w=4.38u l=0.5u
X26 D G S S pfet_03v3 ad=5.163599p pd=17.56u as=6.322p ps=16.92u w=4.38u l=0.5u
X27 S G D S pfet_03v3 ad=6.322p pd=16.92u as=5.163599p ps=17.56u w=4.38u l=0.5u
X28 S G D S pfet_03v3 ad=6.322p pd=16.92u as=5.163599p ps=17.56u w=4.38u l=0.5u
X29 S G D S pfet_03v3 ad=6.322p pd=16.92u as=5.163599p ps=17.56u w=4.38u l=0.5u
X30 D G S S pfet_03v3 ad=3.8988p pd=13.77u as=4.814p ps=13.61u w=4.38u l=0.5u
X31 S G D S pfet_03v3 ad=6.322p pd=16.92u as=5.163599p ps=17.56u w=4.38u l=0.5u
X32 D G S S pfet_03v3 ad=5.163599p pd=17.56u as=6.322p ps=16.92u w=4.38u l=0.5u
X33 S G D S pfet_03v3 ad=6.322p pd=16.92u as=5.163599p ps=17.56u w=4.38u l=0.5u
X34 S G D S pfet_03v3 ad=6.322p pd=16.92u as=5.163599p ps=17.56u w=4.38u l=0.5u
X35 S G D S pfet_03v3 ad=6.322p pd=16.92u as=5.163599p ps=17.56u w=4.38u l=0.5u
X36 S G D S pfet_03v3 ad=6.322p pd=16.92u as=5.163599p ps=17.56u w=4.38u l=0.5u
X37 S G D S pfet_03v3 ad=6.322p pd=16.92u as=5.163599p ps=17.56u w=4.38u l=0.5u
X38 D G S S pfet_03v3 ad=5.163599p pd=17.56u as=6.322p ps=16.92u w=4.38u l=0.5u
X39 S G D S pfet_03v3 ad=6.322p pd=16.92u as=5.163599p ps=17.56u w=4.38u l=0.5u
X40 S G D S pfet_03v3 ad=6.322p pd=16.92u as=5.163599p ps=17.56u w=4.38u l=0.5u
X41 D G S S pfet_03v3 ad=5.163599p pd=17.56u as=6.322p ps=16.92u w=4.38u l=0.5u
X42 S G D S pfet_03v3 ad=6.322p pd=16.92u as=5.163599p ps=17.56u w=4.38u l=0.5u
X43 D G S S pfet_03v3 ad=5.163599p pd=17.56u as=6.322p ps=16.92u w=4.38u l=0.5u
X44 S G D S pfet_03v3 ad=6.322p pd=16.92u as=5.163599p ps=17.56u w=4.38u l=0.5u
X45 D G S S pfet_03v3 ad=5.163599p pd=17.56u as=6.322p ps=16.92u w=4.38u l=0.5u
X46 S G D S pfet_03v3 ad=6.322p pd=16.92u as=5.163599p ps=17.56u w=4.38u l=0.5u
X47 S G D S pfet_03v3 ad=6.322p pd=16.92u as=5.163599p ps=17.56u w=4.38u l=0.5u
X48 S G D S pfet_03v3 ad=6.322p pd=16.92u as=5.163599p ps=17.56u w=4.38u l=0.5u
X49 S G D S pfet_03v3 ad=6.322p pd=16.92u as=5.163599p ps=17.56u w=4.38u l=0.5u
X50 D G S S pfet_03v3 ad=5.163599p pd=17.56u as=6.322p ps=16.92u w=4.38u l=0.5u
X51 D G S S pfet_03v3 ad=5.163599p pd=17.56u as=6.322p ps=16.92u w=4.38u l=0.5u
X52 S G D S pfet_03v3 ad=6.322p pd=16.92u as=5.163599p ps=17.56u w=4.38u l=0.5u
X53 S G D S pfet_03v3 ad=6.322p pd=16.92u as=5.163599p ps=17.56u w=4.38u l=0.5u
X54 S G D S pfet_03v3 ad=6.322p pd=16.92u as=5.163599p ps=17.56u w=4.38u l=0.5u
X55 D G S S pfet_03v3 ad=5.163599p pd=17.56u as=6.322p ps=16.92u w=4.38u l=0.5u
X56 S G D S pfet_03v3 ad=6.322p pd=16.92u as=5.163599p ps=17.56u w=4.38u l=0.5u
X57 D G S S pfet_03v3 ad=3.8988p pd=13.77u as=4.814p ps=13.61u w=4.38u l=0.5u
X58 D G S S pfet_03v3 ad=5.163599p pd=17.56u as=6.322p ps=16.92u w=4.38u l=0.5u
X59 D G S S pfet_03v3 ad=5.163599p pd=17.56u as=6.322p ps=16.92u w=4.38u l=0.5u
X60 S G D S pfet_03v3 ad=6.322p pd=16.92u as=5.163599p ps=17.56u w=4.38u l=0.5u
X61 D G S S pfet_03v3 ad=3.8988p pd=13.77u as=6.322p ps=16.92u w=4.38u l=0.5u
X62 D G S S pfet_03v3 ad=5.163599p pd=17.56u as=6.322p ps=16.92u w=4.38u l=0.5u
X63 D G S S pfet_03v3 ad=5.163599p pd=17.56u as=6.322p ps=16.92u w=4.38u l=0.5u
X64 D G S S pfet_03v3 ad=5.163599p pd=17.56u as=6.322p ps=16.92u w=4.38u l=0.5u
X65 S G D S pfet_03v3 ad=6.322p pd=16.92u as=5.163599p ps=17.56u w=4.38u l=0.5u
X66 D G S S pfet_03v3 ad=5.163599p pd=17.56u as=6.322p ps=16.92u w=4.38u l=0.5u
X67 S G D S pfet_03v3 ad=6.322p pd=16.92u as=5.163599p ps=17.56u w=4.38u l=0.5u
X68 S G D S pfet_03v3 ad=4.814p pd=13.61u as=5.163599p ps=17.56u w=4.38u l=0.5u
X69 S G D S pfet_03v3 ad=6.322p pd=16.92u as=5.163599p ps=17.56u w=4.38u l=0.5u
X70 S G D S pfet_03v3 ad=6.322p pd=16.92u as=5.163599p ps=17.56u w=4.38u l=0.5u
X71 S G D S pfet_03v3 ad=6.322p pd=16.92u as=5.163599p ps=17.56u w=4.38u l=0.5u
X72 S G D S pfet_03v3 ad=6.322p pd=16.92u as=5.163599p ps=17.56u w=4.38u l=0.5u
X73 D G S S pfet_03v3 ad=5.163599p pd=17.56u as=6.322p ps=16.92u w=4.38u l=0.5u
X74 D G S S pfet_03v3 ad=5.163599p pd=17.56u as=6.322p ps=16.92u w=4.38u l=0.5u
X75 S G D S pfet_03v3 ad=6.322p pd=16.92u as=5.163599p ps=17.56u w=4.38u l=0.5u
X76 S G D S pfet_03v3 ad=6.322p pd=16.92u as=5.163599p ps=17.56u w=4.38u l=0.5u
X77 S G D S pfet_03v3 ad=6.322p pd=16.92u as=5.163599p ps=17.56u w=4.38u l=0.5u
X78 S G D S pfet_03v3 ad=4.814p pd=13.61u as=5.163599p ps=17.56u w=4.38u l=0.5u
X79 S G D S pfet_03v3 ad=6.322p pd=16.92u as=5.163599p ps=17.56u w=4.38u l=0.5u
X80 D G S S pfet_03v3 ad=5.163599p pd=17.56u as=6.322p ps=16.92u w=4.38u l=0.5u
X81 D G S S pfet_03v3 ad=3.8988p pd=13.77u as=4.814p ps=13.61u w=4.38u l=0.5u
X82 D G S S pfet_03v3 ad=5.163599p pd=17.56u as=4.814p ps=13.61u w=4.38u l=0.5u
X83 S G D S pfet_03v3 ad=6.322p pd=16.92u as=5.163599p ps=17.56u w=4.38u l=0.5u
X84 D G S S pfet_03v3 ad=5.163599p pd=17.56u as=6.322p ps=16.92u w=4.38u l=0.5u
X85 D G S S pfet_03v3 ad=5.163599p pd=17.56u as=6.322p ps=16.92u w=4.38u l=0.5u
X86 S G D S pfet_03v3 ad=6.322p pd=16.92u as=5.163599p ps=17.56u w=4.38u l=0.5u
X87 S G D S pfet_03v3 ad=6.322p pd=16.92u as=5.163599p ps=17.56u w=4.38u l=0.5u
X88 S G D S pfet_03v3 ad=6.322p pd=16.92u as=5.163599p ps=17.56u w=4.38u l=0.5u
X89 S G D S pfet_03v3 ad=6.322p pd=16.92u as=5.163599p ps=17.56u w=4.38u l=0.5u
X90 S G D S pfet_03v3 ad=6.322p pd=16.92u as=5.163599p ps=17.56u w=4.38u l=0.5u
X91 S G D S pfet_03v3 ad=4.814p pd=13.61u as=3.8988p ps=13.77u w=4.38u l=0.5u
X92 D G S S pfet_03v3 ad=5.163599p pd=17.56u as=6.322p ps=16.92u w=4.38u l=0.5u
X93 D G S S pfet_03v3 ad=5.163599p pd=17.56u as=6.322p ps=16.92u w=4.38u l=0.5u
X94 D G S S pfet_03v3 ad=5.163599p pd=17.56u as=6.322p ps=16.92u w=4.38u l=0.5u
X95 D G S S pfet_03v3 ad=5.163599p pd=17.56u as=6.322p ps=16.92u w=4.38u l=0.5u
X96 S G D S pfet_03v3 ad=6.322p pd=16.92u as=5.163599p ps=17.56u w=4.38u l=0.5u
X97 S G D S pfet_03v3 ad=6.322p pd=16.92u as=5.163599p ps=17.56u w=4.38u l=0.5u
X98 D G S S pfet_03v3 ad=5.163599p pd=17.56u as=6.322p ps=16.92u w=4.38u l=0.5u
X99 S G D S pfet_03v3 ad=6.322p pd=16.92u as=5.163599p ps=17.56u w=4.38u l=0.5u
X100 D G S S pfet_03v3 ad=5.163599p pd=17.56u as=6.322p ps=16.92u w=4.38u l=0.5u
X101 D G S S pfet_03v3 ad=5.163599p pd=17.56u as=6.322p ps=16.92u w=4.38u l=0.5u
X102 D G S S pfet_03v3 ad=5.163599p pd=17.56u as=6.322p ps=16.92u w=4.38u l=0.5u
X103 S G D S pfet_03v3 ad=6.322p pd=16.92u as=5.163599p ps=17.56u w=4.38u l=0.5u
X104 D G S S pfet_03v3 ad=5.163599p pd=17.56u as=6.322p ps=16.92u w=4.38u l=0.5u
X105 D G S S pfet_03v3 ad=5.163599p pd=17.56u as=6.322p ps=16.92u w=4.38u l=0.5u
X106 S G D S pfet_03v3 ad=6.322p pd=16.92u as=5.163599p ps=17.56u w=4.38u l=0.5u
X107 D G S S pfet_03v3 ad=5.163599p pd=17.56u as=6.322p ps=16.92u w=4.38u l=0.5u
X108 D G S S pfet_03v3 ad=5.163599p pd=17.56u as=6.322p ps=16.92u w=4.38u l=0.5u
X109 S G D S pfet_03v3 ad=6.322p pd=16.92u as=5.163599p ps=17.56u w=4.38u l=0.5u
X110 D G S S pfet_03v3 ad=5.163599p pd=17.56u as=6.322p ps=16.92u w=4.38u l=0.5u
X111 S G D S pfet_03v3 ad=6.322p pd=16.92u as=5.163599p ps=17.56u w=4.38u l=0.5u
X112 D G S S pfet_03v3 ad=5.163599p pd=17.56u as=6.322p ps=16.92u w=4.38u l=0.5u
X113 S G D S pfet_03v3 ad=6.322p pd=16.92u as=5.163599p ps=17.56u w=4.38u l=0.5u
X114 S G D S pfet_03v3 ad=6.322p pd=16.92u as=5.163599p ps=17.56u w=4.38u l=0.5u
X115 D G S S pfet_03v3 ad=5.163599p pd=17.56u as=6.322p ps=16.92u w=4.38u l=0.5u
X116 S G D S pfet_03v3 ad=6.322p pd=16.92u as=5.163599p ps=17.56u w=4.38u l=0.5u
X117 D G S S pfet_03v3 ad=3.8988p pd=13.77u as=4.814p ps=13.61u w=4.38u l=0.5u
X118 S G D S pfet_03v3 ad=4.814p pd=13.61u as=5.163599p ps=17.56u w=4.38u l=0.5u
X119 S G D S pfet_03v3 ad=6.322p pd=16.92u as=5.163599p ps=17.56u w=4.38u l=0.5u
X120 D G S S pfet_03v3 ad=5.163599p pd=17.56u as=6.322p ps=16.92u w=4.38u l=0.5u
X121 D G S S pfet_03v3 ad=5.163599p pd=17.56u as=6.322p ps=16.92u w=4.38u l=0.5u
X122 D G S S pfet_03v3 ad=5.163599p pd=17.56u as=6.322p ps=16.92u w=4.38u l=0.5u
X123 S G D S pfet_03v3 ad=6.322p pd=16.92u as=5.163599p ps=17.56u w=4.38u l=0.5u
X124 S G D S pfet_03v3 ad=6.322p pd=16.92u as=5.163599p ps=17.56u w=4.38u l=0.5u
X125 D G S S pfet_03v3 ad=5.163599p pd=17.56u as=6.322p ps=16.92u w=4.38u l=0.5u
X126 D G S S pfet_03v3 ad=5.163599p pd=17.56u as=6.322p ps=16.92u w=4.38u l=0.5u
X127 D G S S pfet_03v3 ad=5.163599p pd=17.56u as=6.322p ps=16.92u w=4.38u l=0.5u
X128 D G S S pfet_03v3 ad=5.163599p pd=17.56u as=6.322p ps=16.92u w=4.38u l=0.5u
X129 D G S S pfet_03v3 ad=5.163599p pd=17.56u as=6.322p ps=16.92u w=4.38u l=0.5u
X130 S G D S pfet_03v3 ad=6.322p pd=16.92u as=5.163599p ps=17.56u w=4.38u l=0.5u
X131 S G D S pfet_03v3 ad=6.322p pd=16.92u as=5.163599p ps=17.56u w=4.38u l=0.5u
X132 D G S S pfet_03v3 ad=5.163599p pd=17.56u as=6.322p ps=16.92u w=4.38u l=0.5u
X133 D G S S pfet_03v3 ad=5.163599p pd=17.56u as=6.322p ps=16.92u w=4.38u l=0.5u
X134 S G D S pfet_03v3 ad=6.322p pd=16.92u as=5.163599p ps=17.56u w=4.38u l=0.5u
X135 D G S S pfet_03v3 ad=5.163599p pd=17.56u as=6.322p ps=16.92u w=4.38u l=0.5u
X136 S G D S pfet_03v3 ad=6.322p pd=16.92u as=5.163599p ps=17.56u w=4.38u l=0.5u
X137 S G D S pfet_03v3 ad=6.322p pd=16.92u as=5.163599p ps=17.56u w=4.38u l=0.5u
X138 S G D S pfet_03v3 ad=6.322p pd=16.92u as=5.163599p ps=17.56u w=4.38u l=0.5u
X139 D G S S pfet_03v3 ad=5.163599p pd=17.56u as=6.322p ps=16.92u w=4.38u l=0.5u
X140 D G S S pfet_03v3 ad=5.163599p pd=17.56u as=6.322p ps=16.92u w=4.38u l=0.5u
X141 D G S S pfet_03v3 ad=5.163599p pd=17.56u as=6.322p ps=16.92u w=4.38u l=0.5u
X142 S G D S pfet_03v3 ad=6.322p pd=16.92u as=5.163599p ps=17.56u w=4.38u l=0.5u
X143 D G S S pfet_03v3 ad=5.163599p pd=17.56u as=6.322p ps=16.92u w=4.38u l=0.5u
X144 S G D S pfet_03v3 ad=6.322p pd=16.92u as=5.163599p ps=17.56u w=4.38u l=0.5u
X145 D G S S pfet_03v3 ad=5.163599p pd=17.56u as=6.322p ps=16.92u w=4.38u l=0.5u
X146 D G S S pfet_03v3 ad=3.8988p pd=13.77u as=4.814p ps=13.61u w=4.38u l=0.5u
X147 S G D S pfet_03v3 ad=6.322p pd=16.92u as=5.163599p ps=17.56u w=4.38u l=0.5u
X148 D G S S pfet_03v3 ad=5.163599p pd=17.56u as=6.322p ps=16.92u w=4.38u l=0.5u
X149 D G S S pfet_03v3 ad=5.163599p pd=17.56u as=6.322p ps=16.92u w=4.38u l=0.5u
X150 D G S S pfet_03v3 ad=5.163599p pd=17.56u as=6.322p ps=16.92u w=4.38u l=0.5u
X151 D G S S pfet_03v3 ad=5.163599p pd=17.56u as=6.322p ps=16.92u w=4.38u l=0.5u
X152 D G S S pfet_03v3 ad=5.163599p pd=17.56u as=6.322p ps=16.92u w=4.38u l=0.5u
X153 S G D S pfet_03v3 ad=6.322p pd=16.92u as=5.163599p ps=17.56u w=4.38u l=0.5u
X154 D G S S pfet_03v3 ad=3.8988p pd=13.77u as=4.814p ps=13.61u w=4.38u l=0.5u
X155 D G S S pfet_03v3 ad=5.163599p pd=17.56u as=6.322p ps=16.92u w=4.38u l=0.5u
X156 S G D S pfet_03v3 ad=6.322p pd=16.92u as=5.163599p ps=17.56u w=4.38u l=0.5u
X157 D G S S pfet_03v3 ad=5.163599p pd=17.56u as=6.322p ps=16.92u w=4.38u l=0.5u
X158 S G D S pfet_03v3 ad=6.322p pd=16.92u as=5.163599p ps=17.56u w=4.38u l=0.5u
X159 D G S S pfet_03v3 ad=5.163599p pd=17.56u as=4.814p ps=13.61u w=4.38u l=0.5u
X160 S G D S pfet_03v3 ad=6.322p pd=16.92u as=5.163599p ps=17.56u w=4.38u l=0.5u
X161 D G S S pfet_03v3 ad=5.163599p pd=17.56u as=6.322p ps=16.92u w=4.38u l=0.5u
X162 S G D S pfet_03v3 ad=6.322p pd=16.92u as=5.163599p ps=17.56u w=4.38u l=0.5u
X163 D G S S pfet_03v3 ad=5.163599p pd=17.56u as=6.322p ps=16.92u w=4.38u l=0.5u
X164 S G D S pfet_03v3 ad=6.322p pd=16.92u as=5.163599p ps=17.56u w=4.38u l=0.5u
X165 S G D S pfet_03v3 ad=6.322p pd=16.92u as=5.163599p ps=17.56u w=4.38u l=0.5u
X166 S G D S pfet_03v3 ad=6.322p pd=16.92u as=5.163599p ps=17.56u w=4.38u l=0.5u
X167 D G S S pfet_03v3 ad=3.8988p pd=13.77u as=4.814p ps=13.61u w=4.38u l=0.5u
X168 D G S S pfet_03v3 ad=5.163599p pd=17.56u as=6.322p ps=16.92u w=4.38u l=0.5u
X169 D G S S pfet_03v3 ad=5.163599p pd=17.56u as=6.322p ps=16.92u w=4.38u l=0.5u
X170 D G S S pfet_03v3 ad=5.163599p pd=17.56u as=6.322p ps=16.92u w=4.38u l=0.5u
X171 D G S S pfet_03v3 ad=3.8988p pd=13.77u as=4.814p ps=13.61u w=4.38u l=0.5u
X172 D G S S pfet_03v3 ad=5.163599p pd=17.56u as=6.322p ps=16.92u w=4.38u l=0.5u
X173 D G S S pfet_03v3 ad=5.163599p pd=17.56u as=6.322p ps=16.92u w=4.38u l=0.5u
X174 S G D S pfet_03v3 ad=6.322p pd=16.92u as=5.163599p ps=17.56u w=4.38u l=0.5u
X175 D G S S pfet_03v3 ad=5.163599p pd=17.56u as=6.322p ps=16.92u w=4.38u l=0.5u
X176 D G S S pfet_03v3 ad=5.163599p pd=17.56u as=6.322p ps=16.92u w=4.38u l=0.5u
X177 D G S S pfet_03v3 ad=5.163599p pd=17.56u as=6.322p ps=16.92u w=4.38u l=0.5u
X178 D G S S pfet_03v3 ad=5.163599p pd=17.56u as=6.322p ps=16.92u w=4.38u l=0.5u
X179 S G D S pfet_03v3 ad=6.322p pd=16.92u as=5.163599p ps=17.56u w=4.38u l=0.5u
X180 D G S S pfet_03v3 ad=5.163599p pd=17.56u as=6.322p ps=16.92u w=4.38u l=0.5u
X181 S G D S pfet_03v3 ad=6.322p pd=16.92u as=5.163599p ps=17.56u w=4.38u l=0.5u
X182 D G S S pfet_03v3 ad=5.163599p pd=17.56u as=6.322p ps=16.92u w=4.38u l=0.5u
X183 D G S S pfet_03v3 ad=5.163599p pd=17.56u as=6.322p ps=16.92u w=4.38u l=0.5u
X184 S G D S pfet_03v3 ad=6.322p pd=16.92u as=5.163599p ps=17.56u w=4.38u l=0.5u
X185 S G D S pfet_03v3 ad=6.322p pd=16.92u as=5.163599p ps=17.56u w=4.38u l=0.5u
X186 S G D S pfet_03v3 ad=4.814p pd=13.61u as=5.163599p ps=17.56u w=4.38u l=0.5u
X187 S G D S pfet_03v3 ad=6.322p pd=16.92u as=5.163599p ps=17.56u w=4.38u l=0.5u
X188 S G D S pfet_03v3 ad=6.322p pd=16.92u as=5.163599p ps=17.56u w=4.38u l=0.5u
X189 S G D S pfet_03v3 ad=6.322p pd=16.92u as=5.163599p ps=17.56u w=4.38u l=0.5u
X190 D G S S pfet_03v3 ad=5.163599p pd=17.56u as=4.814p ps=13.61u w=4.38u l=0.5u
X191 D G S S pfet_03v3 ad=5.163599p pd=17.56u as=6.322p ps=16.92u w=4.38u l=0.5u
X192 D G S S pfet_03v3 ad=5.163599p pd=17.56u as=6.322p ps=16.92u w=4.38u l=0.5u
X193 S G D S pfet_03v3 ad=6.322p pd=16.92u as=5.163599p ps=17.56u w=4.38u l=0.5u
X194 S G D S pfet_03v3 ad=6.322p pd=16.92u as=5.163599p ps=17.56u w=4.38u l=0.5u
X195 D G S S pfet_03v3 ad=5.163599p pd=17.56u as=6.322p ps=16.92u w=4.38u l=0.5u
X196 S G D S pfet_03v3 ad=6.322p pd=16.92u as=5.163599p ps=17.56u w=4.38u l=0.5u
X197 S G D S pfet_03v3 ad=6.322p pd=16.92u as=5.163599p ps=17.56u w=4.38u l=0.5u
X198 S G D S pfet_03v3 ad=6.322p pd=16.92u as=5.163599p ps=17.56u w=4.38u l=0.5u
X199 S G D S pfet_03v3 ad=6.322p pd=16.92u as=5.163599p ps=17.56u w=4.38u l=0.5u
X200 S G D S pfet_03v3 ad=6.322p pd=16.92u as=5.163599p ps=17.56u w=4.38u l=0.5u
X201 D G S S pfet_03v3 ad=5.163599p pd=17.56u as=6.322p ps=16.92u w=4.38u l=0.5u
X202 S G D S pfet_03v3 ad=6.322p pd=16.92u as=5.163599p ps=17.56u w=4.38u l=0.5u
X203 D G S S pfet_03v3 ad=5.163599p pd=17.56u as=6.322p ps=16.92u w=4.38u l=0.5u
X204 S G D S pfet_03v3 ad=6.322p pd=16.92u as=5.163599p ps=17.56u w=4.38u l=0.5u
X205 S G D S pfet_03v3 ad=4.814p pd=13.61u as=5.163599p ps=17.56u w=4.38u l=0.5u
X206 S G D S pfet_03v3 ad=6.322p pd=16.92u as=5.163599p ps=17.56u w=4.38u l=0.5u
X207 S G D S pfet_03v3 ad=6.322p pd=16.92u as=5.163599p ps=17.56u w=4.38u l=0.5u
X208 S G D S pfet_03v3 ad=6.322p pd=16.92u as=5.163599p ps=17.56u w=4.38u l=0.5u
X209 D G S S pfet_03v3 ad=5.163599p pd=17.56u as=4.814p ps=13.61u w=4.38u l=0.5u
X210 S G D S pfet_03v3 ad=6.322p pd=16.92u as=5.163599p ps=17.56u w=4.38u l=0.5u
X211 S G D S pfet_03v3 ad=6.322p pd=16.92u as=5.163599p ps=17.56u w=4.38u l=0.5u
X212 S G D S pfet_03v3 ad=6.322p pd=16.92u as=5.163599p ps=17.56u w=4.38u l=0.5u
X213 S G D S pfet_03v3 ad=6.322p pd=16.92u as=5.163599p ps=17.56u w=4.38u l=0.5u
X214 S G D S pfet_03v3 ad=6.322p pd=16.92u as=5.163599p ps=17.56u w=4.38u l=0.5u
X215 S G D S pfet_03v3 ad=6.322p pd=16.92u as=5.163599p ps=17.56u w=4.38u l=0.5u
X216 S G D S pfet_03v3 ad=6.322p pd=16.92u as=5.163599p ps=17.56u w=4.38u l=0.5u
X217 D G S S pfet_03v3 ad=5.163599p pd=17.56u as=4.814p ps=13.61u w=4.38u l=0.5u
X218 D G S S pfet_03v3 ad=5.163599p pd=17.56u as=6.322p ps=16.92u w=4.38u l=0.5u
X219 D G S S pfet_03v3 ad=5.163599p pd=17.56u as=6.322p ps=16.92u w=4.38u l=0.5u
X220 D G S S pfet_03v3 ad=5.163599p pd=17.56u as=6.322p ps=16.92u w=4.38u l=0.5u
X221 D G S S pfet_03v3 ad=5.163599p pd=17.56u as=6.322p ps=16.92u w=4.38u l=0.5u
X222 S G D S pfet_03v3 ad=6.322p pd=16.92u as=5.163599p ps=17.56u w=4.38u l=0.5u
X223 S G D S pfet_03v3 ad=6.322p pd=16.92u as=5.163599p ps=17.56u w=4.38u l=0.5u
X224 S G D S pfet_03v3 ad=4.814p pd=13.61u as=5.163599p ps=17.56u w=4.38u l=0.5u
X225 S G D S pfet_03v3 ad=6.322p pd=16.92u as=5.163599p ps=17.56u w=4.38u l=0.5u
X226 S G D S pfet_03v3 ad=6.322p pd=16.92u as=5.163599p ps=17.56u w=4.38u l=0.5u
X227 D G S S pfet_03v3 ad=5.163599p pd=17.56u as=6.322p ps=16.92u w=4.38u l=0.5u
X228 S G D S pfet_03v3 ad=6.322p pd=16.92u as=5.163599p ps=17.56u w=4.38u l=0.5u
X229 D G S S pfet_03v3 ad=5.163599p pd=17.56u as=6.322p ps=16.92u w=4.38u l=0.5u
X230 S G D S pfet_03v3 ad=6.322p pd=16.92u as=5.163599p ps=17.56u w=4.38u l=0.5u
X231 D G S S pfet_03v3 ad=3.8988p pd=13.77u as=4.814p ps=13.61u w=4.38u l=0.5u
X232 D G S S pfet_03v3 ad=5.163599p pd=17.56u as=6.322p ps=16.92u w=4.38u l=0.5u
X233 D G S S pfet_03v3 ad=5.163599p pd=17.56u as=6.322p ps=16.92u w=4.38u l=0.5u
X234 S G D S pfet_03v3 ad=4.814p pd=13.61u as=3.8988p ps=13.77u w=4.38u l=0.5u
X235 S G D S pfet_03v3 ad=6.322p pd=16.92u as=5.163599p ps=17.56u w=4.38u l=0.5u
X236 D G S S pfet_03v3 ad=5.163599p pd=17.56u as=6.322p ps=16.92u w=4.38u l=0.5u
X237 S G D S pfet_03v3 ad=6.322p pd=16.92u as=5.163599p ps=17.56u w=4.38u l=0.5u
X238 D G S S pfet_03v3 ad=5.163599p pd=17.56u as=6.322p ps=16.92u w=4.38u l=0.5u
X239 S G D S pfet_03v3 ad=6.322p pd=16.92u as=3.8988p ps=13.77u w=4.38u l=0.5u
X240 D G S S pfet_03v3 ad=5.163599p pd=17.56u as=6.322p ps=16.92u w=4.38u l=0.5u
X241 D G S S pfet_03v3 ad=5.163599p pd=17.56u as=6.322p ps=16.92u w=4.38u l=0.5u
X242 D G S S pfet_03v3 ad=5.163599p pd=17.56u as=6.322p ps=16.92u w=4.38u l=0.5u
X243 D G S S pfet_03v3 ad=5.163599p pd=17.56u as=6.322p ps=16.92u w=4.38u l=0.5u
X244 S G D S pfet_03v3 ad=6.322p pd=16.92u as=5.163599p ps=17.56u w=4.38u l=0.5u
X245 D G S S pfet_03v3 ad=5.163599p pd=17.56u as=6.322p ps=16.92u w=4.38u l=0.5u
X246 S G D S pfet_03v3 ad=6.322p pd=16.92u as=5.163599p ps=17.56u w=4.38u l=0.5u
X247 S G D S pfet_03v3 ad=6.322p pd=16.92u as=5.163599p ps=17.56u w=4.38u l=0.5u
X248 S G D S pfet_03v3 ad=6.322p pd=16.92u as=5.163599p ps=17.56u w=4.38u l=0.5u
X249 S G D S pfet_03v3 ad=6.322p pd=16.92u as=5.163599p ps=17.56u w=4.38u l=0.5u
X250 S G D S pfet_03v3 ad=6.322p pd=16.92u as=5.163599p ps=17.56u w=4.38u l=0.5u
X251 D G S S pfet_03v3 ad=5.163599p pd=17.56u as=6.322p ps=16.92u w=4.38u l=0.5u
X252 D G S S pfet_03v3 ad=3.8988p pd=13.77u as=4.814p ps=13.61u w=4.38u l=0.5u
X253 S G D S pfet_03v3 ad=6.322p pd=16.92u as=5.163599p ps=17.56u w=4.38u l=0.5u
X254 D G S S pfet_03v3 ad=5.163599p pd=17.56u as=6.322p ps=16.92u w=4.38u l=0.5u
X255 S G D S pfet_03v3 ad=6.322p pd=16.92u as=5.163599p ps=17.56u w=4.38u l=0.5u
X256 D G S S pfet_03v3 ad=5.163599p pd=17.56u as=6.322p ps=16.92u w=4.38u l=0.5u
X257 D G S S pfet_03v3 ad=5.163599p pd=17.56u as=6.322p ps=16.92u w=4.38u l=0.5u
X258 D G S S pfet_03v3 ad=5.163599p pd=17.56u as=6.322p ps=16.92u w=4.38u l=0.5u
X259 D G S S pfet_03v3 ad=5.163599p pd=17.56u as=6.322p ps=16.92u w=4.38u l=0.5u
X260 D G S S pfet_03v3 ad=5.163599p pd=17.56u as=6.322p ps=16.92u w=4.38u l=0.5u
X261 S G D S pfet_03v3 ad=6.322p pd=16.92u as=5.163599p ps=17.56u w=4.38u l=0.5u
X262 S G D S pfet_03v3 ad=6.322p pd=16.92u as=5.163599p ps=17.56u w=4.38u l=0.5u
X263 S G D S pfet_03v3 ad=4.814p pd=13.61u as=3.8988p ps=13.77u w=4.38u l=0.5u
X264 S G D S pfet_03v3 ad=6.322p pd=16.92u as=5.163599p ps=17.56u w=4.38u l=0.5u
X265 S G D S pfet_03v3 ad=6.322p pd=16.92u as=5.163599p ps=17.56u w=4.38u l=0.5u
X266 D G S S pfet_03v3 ad=5.163599p pd=17.56u as=6.322p ps=16.92u w=4.38u l=0.5u
X267 D G S S pfet_03v3 ad=5.163599p pd=17.56u as=6.322p ps=16.92u w=4.38u l=0.5u
X268 D G S S pfet_03v3 ad=5.163599p pd=17.56u as=6.322p ps=16.92u w=4.38u l=0.5u
X269 D G S S pfet_03v3 ad=5.163599p pd=17.56u as=6.322p ps=16.92u w=4.38u l=0.5u
X270 S G D S pfet_03v3 ad=6.322p pd=16.92u as=3.8988p ps=13.77u w=4.38u l=0.5u
X271 S G D S pfet_03v3 ad=6.322p pd=16.92u as=5.163599p ps=17.56u w=4.38u l=0.5u
X272 D G S S pfet_03v3 ad=5.163599p pd=17.56u as=6.322p ps=16.92u w=4.38u l=0.5u
X273 D G S S pfet_03v3 ad=5.163599p pd=17.56u as=6.322p ps=16.92u w=4.38u l=0.5u
X274 D G S S pfet_03v3 ad=5.163599p pd=17.56u as=6.322p ps=16.92u w=4.38u l=0.5u
X275 D G S S pfet_03v3 ad=5.163599p pd=17.56u as=6.322p ps=16.92u w=4.38u l=0.5u
X276 S G D S pfet_03v3 ad=6.322p pd=16.92u as=5.163599p ps=17.56u w=4.38u l=0.5u
X277 D G S S pfet_03v3 ad=5.163599p pd=17.56u as=6.322p ps=16.92u w=4.38u l=0.5u
X278 D G S S pfet_03v3 ad=5.163599p pd=17.56u as=6.322p ps=16.92u w=4.38u l=0.5u
X279 D G S S pfet_03v3 ad=5.163599p pd=17.56u as=6.322p ps=16.92u w=4.38u l=0.5u
X280 D G S S pfet_03v3 ad=5.163599p pd=17.56u as=6.322p ps=16.92u w=4.38u l=0.5u
X281 D G S S pfet_03v3 ad=5.163599p pd=17.56u as=6.322p ps=16.92u w=4.38u l=0.5u
X282 D G S S pfet_03v3 ad=5.163599p pd=17.56u as=6.322p ps=16.92u w=4.38u l=0.5u
X283 D G S S pfet_03v3 ad=5.163599p pd=17.56u as=6.322p ps=16.92u w=4.38u l=0.5u
X284 D G S S pfet_03v3 ad=5.163599p pd=17.56u as=6.322p ps=16.92u w=4.38u l=0.5u
X285 D G S S pfet_03v3 ad=5.163599p pd=17.56u as=6.322p ps=16.92u w=4.38u l=0.5u
X286 S G D S pfet_03v3 ad=6.322p pd=16.92u as=5.163599p ps=17.56u w=4.38u l=0.5u
X287 S G D S pfet_03v3 ad=6.322p pd=16.92u as=5.163599p ps=17.56u w=4.38u l=0.5u
X288 S G D S pfet_03v3 ad=6.322p pd=16.92u as=5.163599p ps=17.56u w=4.38u l=0.5u
X289 S G D S pfet_03v3 ad=6.322p pd=16.92u as=3.8988p ps=13.77u w=4.38u l=0.5u
X290 S G D S pfet_03v3 ad=6.322p pd=16.92u as=5.163599p ps=17.56u w=4.38u l=0.5u
X291 D G S S pfet_03v3 ad=5.163599p pd=17.56u as=6.322p ps=16.92u w=4.38u l=0.5u
X292 S G D S pfet_03v3 ad=4.814p pd=13.61u as=3.8988p ps=13.77u w=4.38u l=0.5u
X293 D G S S pfet_03v3 ad=3.8988p pd=13.77u as=6.322p ps=16.92u w=4.38u l=0.5u
X294 D G S S pfet_03v3 ad=5.163599p pd=17.56u as=6.322p ps=16.92u w=4.38u l=0.5u
X295 D G S S pfet_03v3 ad=5.163599p pd=17.56u as=6.322p ps=16.92u w=4.38u l=0.5u
X296 S G D S pfet_03v3 ad=6.322p pd=16.92u as=5.163599p ps=17.56u w=4.38u l=0.5u
X297 S G D S pfet_03v3 ad=6.322p pd=16.92u as=5.163599p ps=17.56u w=4.38u l=0.5u
X298 D G S S pfet_03v3 ad=5.163599p pd=17.56u as=6.322p ps=16.92u w=4.38u l=0.5u
X299 D G S S pfet_03v3 ad=5.163599p pd=17.56u as=6.322p ps=16.92u w=4.38u l=0.5u
X300 S G D S pfet_03v3 ad=6.322p pd=16.92u as=5.163599p ps=17.56u w=4.38u l=0.5u
X301 S G D S pfet_03v3 ad=6.322p pd=16.92u as=5.163599p ps=17.56u w=4.38u l=0.5u
X302 D G S S pfet_03v3 ad=5.163599p pd=17.56u as=6.322p ps=16.92u w=4.38u l=0.5u
X303 D G S S pfet_03v3 ad=5.163599p pd=17.56u as=6.322p ps=16.92u w=4.38u l=0.5u
X304 D G S S pfet_03v3 ad=5.163599p pd=17.56u as=6.322p ps=16.92u w=4.38u l=0.5u
X305 D G S S pfet_03v3 ad=3.8988p pd=13.77u as=6.322p ps=16.92u w=4.38u l=0.5u
X306 D G S S pfet_03v3 ad=5.163599p pd=17.56u as=6.322p ps=16.92u w=4.38u l=0.5u
X307 D G S S pfet_03v3 ad=5.163599p pd=17.56u as=6.322p ps=16.92u w=4.38u l=0.5u
X308 D G S S pfet_03v3 ad=3.8988p pd=13.77u as=4.814p ps=13.61u w=4.38u l=0.5u
X309 S G D S pfet_03v3 ad=6.322p pd=16.92u as=5.163599p ps=17.56u w=4.38u l=0.5u
X310 S G D S pfet_03v3 ad=6.322p pd=16.92u as=5.163599p ps=17.56u w=4.38u l=0.5u
X311 S G D S pfet_03v3 ad=6.322p pd=16.92u as=3.8988p ps=13.77u w=4.38u l=0.5u
X312 S G D S pfet_03v3 ad=6.322p pd=16.92u as=5.163599p ps=17.56u w=4.38u l=0.5u
X313 D G S S pfet_03v3 ad=5.163599p pd=17.56u as=6.322p ps=16.92u w=4.38u l=0.5u
X314 D G S S pfet_03v3 ad=5.163599p pd=17.56u as=6.322p ps=16.92u w=4.38u l=0.5u
X315 D G S S pfet_03v3 ad=3.8988p pd=13.77u as=6.322p ps=16.92u w=4.38u l=0.5u
X316 D G S S pfet_03v3 ad=5.163599p pd=17.56u as=6.322p ps=16.92u w=4.38u l=0.5u
X317 S G D S pfet_03v3 ad=6.322p pd=16.92u as=5.163599p ps=17.56u w=4.38u l=0.5u
X318 S G D S pfet_03v3 ad=4.814p pd=13.61u as=3.8988p ps=13.77u w=4.38u l=0.5u
X319 S G D S pfet_03v3 ad=6.322p pd=16.92u as=5.163599p ps=17.56u w=4.38u l=0.5u
X320 S G D S pfet_03v3 ad=6.322p pd=16.92u as=5.163599p ps=17.56u w=4.38u l=0.5u
X321 D G S S pfet_03v3 ad=5.163599p pd=17.56u as=6.322p ps=16.92u w=4.38u l=0.5u
X322 S G D S pfet_03v3 ad=6.322p pd=16.92u as=5.163599p ps=17.56u w=4.38u l=0.5u
X323 S G D S pfet_03v3 ad=6.322p pd=16.92u as=5.163599p ps=17.56u w=4.38u l=0.5u
X324 D G S S pfet_03v3 ad=5.163599p pd=17.56u as=6.322p ps=16.92u w=4.38u l=0.5u
X325 D G S S pfet_03v3 ad=5.163599p pd=17.56u as=6.322p ps=16.92u w=4.38u l=0.5u
X326 D G S S pfet_03v3 ad=5.163599p pd=17.56u as=6.322p ps=16.92u w=4.38u l=0.5u
X327 D G S S pfet_03v3 ad=5.163599p pd=17.56u as=6.322p ps=16.92u w=4.38u l=0.5u
X328 D G S S pfet_03v3 ad=5.163599p pd=17.56u as=6.322p ps=16.92u w=4.38u l=0.5u
X329 S G D S pfet_03v3 ad=6.322p pd=16.92u as=5.163599p ps=17.56u w=4.38u l=0.5u
X330 S G D S pfet_03v3 ad=6.322p pd=16.92u as=5.163599p ps=17.56u w=4.38u l=0.5u
X331 S G D S pfet_03v3 ad=6.322p pd=16.92u as=5.163599p ps=17.56u w=4.38u l=0.5u
X332 D G S S pfet_03v3 ad=5.163599p pd=17.56u as=6.322p ps=16.92u w=4.38u l=0.5u
X333 S G D S pfet_03v3 ad=6.322p pd=16.92u as=5.163599p ps=17.56u w=4.38u l=0.5u
X334 S G D S pfet_03v3 ad=6.322p pd=16.92u as=5.163599p ps=17.56u w=4.38u l=0.5u
X335 D G S S pfet_03v3 ad=5.163599p pd=17.56u as=6.322p ps=16.92u w=4.38u l=0.5u
X336 S G D S pfet_03v3 ad=6.322p pd=16.92u as=5.163599p ps=17.56u w=4.38u l=0.5u
X337 S G D S pfet_03v3 ad=6.322p pd=16.92u as=5.163599p ps=17.56u w=4.38u l=0.5u
X338 S G D S pfet_03v3 ad=6.322p pd=16.92u as=5.163599p ps=17.56u w=4.38u l=0.5u
X339 S G D S pfet_03v3 ad=6.322p pd=16.92u as=5.163599p ps=17.56u w=4.38u l=0.5u
X340 S G D S pfet_03v3 ad=6.322p pd=16.92u as=5.163599p ps=17.56u w=4.38u l=0.5u
X341 D G S S pfet_03v3 ad=5.163599p pd=17.56u as=6.322p ps=16.92u w=4.38u l=0.5u
X342 D G S S pfet_03v3 ad=5.163599p pd=17.56u as=4.814p ps=13.61u w=4.38u l=0.5u
X343 D G S S pfet_03v3 ad=5.163599p pd=17.56u as=6.322p ps=16.92u w=4.38u l=0.5u
X344 D G S S pfet_03v3 ad=3.8988p pd=13.77u as=6.322p ps=16.92u w=4.38u l=0.5u
X345 D G S S pfet_03v3 ad=3.8988p pd=13.77u as=4.814p ps=13.61u w=4.38u l=0.5u
X346 S G D S pfet_03v3 ad=6.322p pd=16.92u as=5.163599p ps=17.56u w=4.38u l=0.5u
X347 S G D S pfet_03v3 ad=4.814p pd=13.61u as=5.163599p ps=17.56u w=4.38u l=0.5u
X348 S G D S pfet_03v3 ad=6.322p pd=16.92u as=5.163599p ps=17.56u w=4.38u l=0.5u
X349 D G S S pfet_03v3 ad=5.163599p pd=17.56u as=6.322p ps=16.92u w=4.38u l=0.5u
X350 D G S S pfet_03v3 ad=5.163599p pd=17.56u as=6.322p ps=16.92u w=4.38u l=0.5u
X351 S G D S pfet_03v3 ad=6.322p pd=16.92u as=5.163599p ps=17.56u w=4.38u l=0.5u
X352 S G D S pfet_03v3 ad=6.322p pd=16.92u as=5.163599p ps=17.56u w=4.38u l=0.5u
X353 D G S S pfet_03v3 ad=5.163599p pd=17.56u as=6.322p ps=16.92u w=4.38u l=0.5u
X354 S G D S pfet_03v3 ad=6.322p pd=16.92u as=5.163599p ps=17.56u w=4.38u l=0.5u
X355 D G S S pfet_03v3 ad=5.163599p pd=17.56u as=6.322p ps=16.92u w=4.38u l=0.5u
X356 D G S S pfet_03v3 ad=5.163599p pd=17.56u as=6.322p ps=16.92u w=4.38u l=0.5u
X357 S G D S pfet_03v3 ad=6.322p pd=16.92u as=5.163599p ps=17.56u w=4.38u l=0.5u
X358 D G S S pfet_03v3 ad=3.8988p pd=13.77u as=4.814p ps=13.61u w=4.38u l=0.5u
X359 S G D S pfet_03v3 ad=6.322p pd=16.92u as=5.163599p ps=17.56u w=4.38u l=0.5u
X360 S G D S pfet_03v3 ad=6.322p pd=16.92u as=5.163599p ps=17.56u w=4.38u l=0.5u
X361 S G D S pfet_03v3 ad=6.322p pd=16.92u as=5.163599p ps=17.56u w=4.38u l=0.5u
X362 S G D S pfet_03v3 ad=4.814p pd=13.61u as=3.8988p ps=13.77u w=4.38u l=0.5u
X363 D G S S pfet_03v3 ad=5.163599p pd=17.56u as=6.322p ps=16.92u w=4.38u l=0.5u
X364 S G D S pfet_03v3 ad=6.322p pd=16.92u as=5.163599p ps=17.56u w=4.38u l=0.5u
X365 D G S S pfet_03v3 ad=5.163599p pd=17.56u as=6.322p ps=16.92u w=4.38u l=0.5u
X366 D G S S pfet_03v3 ad=5.163599p pd=17.56u as=6.322p ps=16.92u w=4.38u l=0.5u
X367 D G S S pfet_03v3 ad=5.163599p pd=17.56u as=6.322p ps=16.92u w=4.38u l=0.5u
X368 S G D S pfet_03v3 ad=6.322p pd=16.92u as=5.163599p ps=17.56u w=4.38u l=0.5u
X369 S G D S pfet_03v3 ad=6.322p pd=16.92u as=5.163599p ps=17.56u w=4.38u l=0.5u
X370 S G D S pfet_03v3 ad=6.322p pd=16.92u as=5.163599p ps=17.56u w=4.38u l=0.5u