*SPEF "ieee 1481-1999"
*DESIGN "dac_matrix_decoder"
*DATE "15:35:30 Saturday April 20, 2024"
*VENDOR "The OpenROAD Project"
*PROGRAM "OpenROAD"
*VERSION "0889970d1790a2617e69f253221b8bd7626e51dc"
*DESIGN_FLOW "NAME_SCOPE LOCAL" "PIN_CAP NONE"
*DIVIDER /
*DELIMITER :
*BUS_DELIMITER []
*T_UNIT 1 NS
*C_UNIT 1 PF
*R_UNIT 1 OHM
*L_UNIT 1 HENRY

*NAME_MAP
*3 b_in[0]
*4 b_in[1]
*5 b_in[2]
*6 t_out[0]
*7 t_out[1]
*8 t_out[2]
*9 t_out[3]
*10 t_out[4]
*11 t_out[5]
*12 t_out[6]
*13 _00_
*14 _01_
*15 net1
*16 net10
*17 net2
*18 net3
*19 net4
*20 net5
*21 net6
*22 net7
*23 net8
*24 net9
*25 FILLER_0_0_10
*26 FILLER_0_0_14
*27 FILLER_0_0_2
*28 FILLER_0_1_8
*29 FILLER_0_2_2
*30 FILLER_0_3_10
*31 FILLER_0_3_23
*32 FILLER_0_3_8
*33 FILLER_0_5_2
*34 FILLER_0_7_2
*35 FILLER_0_8_2
*36 FILLER_0_9_8
*37 PHY_EDGE_ROW_0_Left_10
*38 PHY_EDGE_ROW_0_Right_0
*39 PHY_EDGE_ROW_1_Left_11
*40 PHY_EDGE_ROW_1_Right_1
*41 PHY_EDGE_ROW_2_Left_12
*42 PHY_EDGE_ROW_2_Right_2
*43 PHY_EDGE_ROW_3_Left_13
*44 PHY_EDGE_ROW_3_Right_3
*45 PHY_EDGE_ROW_4_Left_14
*46 PHY_EDGE_ROW_4_Right_4
*47 PHY_EDGE_ROW_5_Left_15
*48 PHY_EDGE_ROW_5_Right_5
*49 PHY_EDGE_ROW_6_Left_16
*50 PHY_EDGE_ROW_6_Right_6
*51 PHY_EDGE_ROW_7_Left_17
*52 PHY_EDGE_ROW_7_Right_7
*53 PHY_EDGE_ROW_8_Left_18
*54 PHY_EDGE_ROW_8_Right_8
*55 PHY_EDGE_ROW_9_Left_19
*56 PHY_EDGE_ROW_9_Right_9
*57 _02_
*58 _03_
*59 _04_
*60 _05_
*61 _06_
*62 _07_
*63 _08_
*64 _09_
*65 _10_
*66 input1
*67 input2
*68 input3
*69 output10
*70 output4
*71 output5
*72 output6
*73 output7
*74 output8
*75 output9

*PORTS
b_in[0] I
b_in[1] I
b_in[2] I
t_out[0] O
t_out[1] O
t_out[2] O
t_out[3] O
t_out[4] O
t_out[5] O
t_out[6] O

*D_NET *3 0.000195484
*CONN
*P b_in[0] I
*I *66:I I *D gf180mcu_fd_sc_mcu7t5v0__clkbuf_1
*CAP
1 b_in[0] 9.7742e-05
2 *66:I 9.7742e-05
3 *66:I *70:I 0
*RES
1 b_in[0] *66:I 9.495 
*END

*D_NET *4 0.00107073
*CONN
*P b_in[1] I
*I *67:I I *D gf180mcu_fd_sc_mcu7t5v0__clkbuf_1
*CAP
1 b_in[1] 0.000508159
2 *67:I 0.000508159
3 *67:I *17:27 3.39973e-05
4 *67:I *20:10 2.04162e-05
*RES
1 b_in[1] *67:I 11.655 
*END

*D_NET *5 0.000539571
*CONN
*P b_in[2] I
*I *68:I I *D gf180mcu_fd_sc_mcu7t5v0__clkbuf_1
*CAP
1 b_in[2] 0.000254825
2 *68:I 0.000254825
3 *68:I *62:A2 0
4 *68:I *18:12 2.99208e-05
*RES
1 b_in[2] *68:I 10.755 
*END

*D_NET *6 0.00062214
*CONN
*P t_out[0] O
*I *70:Z O *D gf180mcu_fd_sc_mcu7t5v0__clkbuf_3
*CAP
1 t_out[0] 0.000124651
2 *70:Z 0.000124651
3 t_out[0] t_out[1] 0
4 t_out[0] *58:A1 0.000294431
5 t_out[0] *58:A2 7.84068e-05
*RES
1 *70:Z t_out[0] 10.215 
*END

*D_NET *7 0.000404626
*CONN
*P t_out[1] O
*I *71:Z O *D gf180mcu_fd_sc_mcu7t5v0__clkbuf_3
*CAP
1 t_out[1] 8.17634e-05
2 *71:Z 8.17634e-05
3 t_out[1] t_out[2] 0
4 t_out[1] *58:A2 4.45729e-05
5 t_out[1] *15:10 2.70026e-05
6 t_out[1] *15:25 0.000169524
7 t_out[0] t_out[1] 0
*RES
1 *71:Z t_out[1] 9.855 
*END

*D_NET *8 0.000705275
*CONN
*P t_out[2] O
*I *72:Z O *D gf180mcu_fd_sc_mcu7t5v0__clkbuf_3
*CAP
1 t_out[2] 0.000139783
2 *72:Z 0.000139783
3 t_out[2] t_out[3] 0
4 t_out[2] *59:B 0.000297973
5 t_out[2] *15:36 0.000127736
6 t_out[1] t_out[2] 0
*RES
1 *72:Z t_out[2] 10.395 
*END

*D_NET *9 0.000287681
*CONN
*P t_out[3] O
*I *73:Z O *D gf180mcu_fd_sc_mcu7t5v0__clkbuf_3
*CAP
1 t_out[3] 0.000118241
2 *73:Z 0.000118241
3 t_out[3] t_out[4] 0
4 t_out[3] *59:B 4.34199e-06
5 t_out[3] *15:36 4.68559e-05
6 t_out[2] t_out[3] 0
*RES
1 *73:Z t_out[3] 9.855 
*END

*D_NET *10 0.000147537
*CONN
*P t_out[4] O
*I *74:Z O *D gf180mcu_fd_sc_mcu7t5v0__clkbuf_3
*CAP
1 t_out[4] 7.05667e-05
2 *74:Z 7.05667e-05
3 t_out[4] t_out[5] 0
4 t_out[4] *62:A1 6.40324e-06
5 t_out[3] t_out[4] 0
*RES
1 *74:Z t_out[4] 9.405 
*END

*D_NET *11 0.000374697
*CONN
*P t_out[5] O
*I *75:Z O *D gf180mcu_fd_sc_mcu7t5v0__clkbuf_3
*CAP
1 t_out[5] 0.00015047
2 *75:Z 0.00015047
3 t_out[5] *62:A1 3.60189e-05
4 t_out[5] *69:I 3.77369e-05
5 t_out[4] t_out[5] 0
*RES
1 *75:Z t_out[5] 10.035 
*END

*D_NET *12 0.000112078
*CONN
*P t_out[6] O
*I *69:Z O *D gf180mcu_fd_sc_mcu7t5v0__clkbuf_3
*CAP
1 t_out[6] 5.60391e-05
2 *69:Z 5.60391e-05
*RES
1 *69:Z t_out[6] 9.405 
*END

*D_NET *13 0.00032733
*CONN
*I *60:I I *D gf180mcu_fd_sc_mcu7t5v0__clkinv_1
*I *59:ZN O *D gf180mcu_fd_sc_mcu7t5v0__aoi21_1
*CAP
1 *60:I 0.000107617
2 *59:ZN 0.000107617
3 *60:I *59:A2 4.83522e-05
4 *60:I *72:I 1.22523e-05
5 *60:I *15:25 3.22122e-05
6 *60:I *20:10 1.92789e-05
*RES
1 *59:ZN *60:I 10.4111 
*END

*D_NET *14 0.000812927
*CONN
*I *63:I I *D gf180mcu_fd_sc_mcu7t5v0__clkinv_1
*I *62:ZN O *D gf180mcu_fd_sc_mcu7t5v0__oai21_1
*CAP
1 *63:I 0.000193193
2 *62:ZN 0.000193193
3 *63:I *62:A1 9.5155e-05
4 *63:I *62:A2 0.000313292
5 *63:I *75:I 3.15941e-06
6 *63:I *18:22 0
7 *63:I *24:8 1.49336e-05
*RES
1 *62:ZN *63:I 19.3886 
*END

*D_NET *15 0.00563859
*CONN
*I *64:A1 I *D gf180mcu_fd_sc_mcu7t5v0__and2_1
*I *62:A1 I *D gf180mcu_fd_sc_mcu7t5v0__oai21_1
*I *59:A1 I *D gf180mcu_fd_sc_mcu7t5v0__aoi21_1
*I *58:A1 I *D gf180mcu_fd_sc_mcu7t5v0__or2_1
*I *66:Z O *D gf180mcu_fd_sc_mcu7t5v0__clkbuf_1
*CAP
1 *64:A1 0
2 *62:A1 0.000304543
3 *59:A1 0
4 *58:A1 0.00017566
5 *66:Z 0.000425686
6 *15:36 0.00115736
7 *15:25 0.0012673
8 *15:10 0.00101583
9 *58:A1 *58:A2 3.83508e-05
10 *62:A1 *64:A2 9.35013e-05
11 *62:A1 *75:I 3.58729e-05
12 *62:A1 *24:8 1.79158e-05
13 *15:10 *58:A2 8.06142e-05
14 *15:25 *58:A2 2.24958e-05
15 *15:36 *59:A2 3.07932e-05
16 *15:36 *59:B 3.38355e-05
17 *15:36 *64:A2 6.19751e-05
18 *15:36 *69:I 1.86887e-06
19 *15:36 *72:I 3.96404e-05
20 *15:36 *18:22 0
21 t_out[0] *58:A1 0.000294431
22 t_out[1] *15:10 2.70026e-05
23 t_out[1] *15:25 0.000169524
24 t_out[2] *15:36 0.000127736
25 t_out[3] *15:36 4.68559e-05
26 t_out[4] *62:A1 6.40324e-06
27 t_out[5] *62:A1 3.60189e-05
28 *60:I *15:25 3.22122e-05
29 *63:I *62:A1 9.5155e-05
*RES
1 *66:Z *15:10 16.47 
2 *15:10 *58:A1 6.03 
3 *15:10 *15:25 3.24 
4 *15:25 *59:A1 4.5 
5 *15:25 *15:36 5.85 
6 *15:36 *62:A1 15.84 
7 *15:36 *64:A1 4.5 
*END

*D_NET *16 0.00113399
*CONN
*I *69:I I *D gf180mcu_fd_sc_mcu7t5v0__clkbuf_3
*I *64:Z O *D gf180mcu_fd_sc_mcu7t5v0__and2_1
*CAP
1 *69:I 0.000433787
2 *64:Z 0.000433787
3 *69:I *18:12 0.000203705
4 *69:I *18:22 2.31089e-05
5 t_out[5] *69:I 3.77369e-05
6 *15:36 *69:I 1.86887e-06
*RES
1 *64:Z *69:I 12.6 
*END

*D_NET *17 0.00366587
*CONN
*I *57:A1 I *D gf180mcu_fd_sc_mcu7t5v0__or2_1
*I *61:A1 I *D gf180mcu_fd_sc_mcu7t5v0__and2_1
*I *62:A2 I *D gf180mcu_fd_sc_mcu7t5v0__oai21_1
*I *59:A2 I *D gf180mcu_fd_sc_mcu7t5v0__aoi21_1
*I *67:Z O *D gf180mcu_fd_sc_mcu7t5v0__clkbuf_1
*CAP
1 *57:A1 0
2 *61:A1 2.27251e-05
3 *62:A2 0.000402663
4 *59:A2 0.00037404
5 *67:Z 0
6 *17:31 0.000756147
7 *17:27 0.000614829
8 *17:4 0.000658111
9 *59:A2 *58:A2 0
10 *59:A2 *59:B 4.88141e-05
11 *59:A2 *72:I 3.01487e-05
12 *59:A2 *20:10 9.6501e-06
13 *62:A2 *74:I 0
14 *62:A2 *18:28 1.07374e-05
15 *17:27 *72:I 0
16 *17:27 *18:39 6.2596e-05
17 *17:27 *20:10 7.26067e-05
18 *17:31 *18:28 0.000122547
19 *17:31 *18:39 5.3819e-05
20 *60:I *59:A2 4.83522e-05
21 *63:I *62:A2 0.000313292
22 *67:I *17:27 3.39973e-05
23 *68:I *62:A2 0
24 *15:36 *59:A2 3.07932e-05
*RES
1 *67:Z *17:4 4.5 
2 *17:4 *59:A2 15.75 
3 *17:4 *17:27 2.07 
4 *17:27 *17:31 2.61 
5 *17:31 *62:A2 16.4218 
6 *17:31 *61:A1 4.68 
7 *17:27 *57:A1 4.5 
*END

*D_NET *18 0.0058577
*CONN
*I *62:B I *D gf180mcu_fd_sc_mcu7t5v0__oai21_1
*I *61:A2 I *D gf180mcu_fd_sc_mcu7t5v0__and2_1
*I *57:A2 I *D gf180mcu_fd_sc_mcu7t5v0__or2_1
*I *59:B I *D gf180mcu_fd_sc_mcu7t5v0__aoi21_1
*I *65:I I *D gf180mcu_fd_sc_mcu7t5v0__clkbuf_1
*I *68:Z O *D gf180mcu_fd_sc_mcu7t5v0__clkbuf_1
*CAP
1 *62:B 0
2 *61:A2 0
3 *57:A2 0
4 *59:B 0.000662678
5 *65:I 0
6 *68:Z 0.000393703
7 *18:39 0.000906231
8 *18:28 0.000470181
9 *18:22 0.00068329
10 *18:12 0.000850365
11 *18:12 *75:I 0.000480025
12 *18:22 *64:A2 1.95296e-05
13 *18:22 *74:I 1.06463e-05
14 *18:22 *75:I 0.000354738
15 *18:22 *24:8 0.000131299
16 *18:28 *74:I 2.89427e-06
17 *18:39 *72:I 7.191e-07
18 t_out[2] *59:B 0.000297973
19 t_out[3] *59:B 4.34199e-06
20 *59:A2 *59:B 4.88141e-05
21 *62:A2 *18:28 1.07374e-05
22 *63:I *18:22 0
23 *68:I *18:12 2.99208e-05
24 *69:I *18:12 0.000203705
25 *69:I *18:22 2.31089e-05
26 *15:36 *59:B 3.38355e-05
27 *15:36 *18:22 0
28 *17:27 *18:39 6.2596e-05
29 *17:31 *18:28 0.000122547
30 *17:31 *18:39 5.3819e-05
*RES
1 *68:Z *18:12 8.46 
2 *18:12 *18:22 12.15 
3 *18:22 *18:28 1.71 
4 *18:28 *65:I 4.5 
5 *18:28 *18:39 2.07 
6 *18:39 *59:B 17.64 
7 *18:39 *57:A2 4.5 
8 *18:22 *61:A2 4.5 
9 *18:12 *62:B 4.5 
*END

*D_NET *19 0.000498692
*CONN
*I *70:I I *D gf180mcu_fd_sc_mcu7t5v0__clkbuf_3
*I *58:Z O *D gf180mcu_fd_sc_mcu7t5v0__or2_1
*CAP
1 *70:I 0.000222437
2 *58:Z 0.000222437
3 *70:I *58:A2 5.3819e-05
4 *66:I *70:I 0
*RES
1 *58:Z *70:I 10.62 
*END

*D_NET *20 0.00229785
*CONN
*I *71:I I *D gf180mcu_fd_sc_mcu7t5v0__clkbuf_3
*I *58:A2 I *D gf180mcu_fd_sc_mcu7t5v0__or2_1
*I *57:Z O *D gf180mcu_fd_sc_mcu7t5v0__or2_1
*CAP
1 *71:I 0
2 *58:A2 0.00049599
3 *57:Z 0.000420947
4 *20:10 0.000916937
5 *20:10 *72:I 2.37695e-05
6 t_out[0] *58:A2 7.84068e-05
7 t_out[1] *58:A2 4.45729e-05
8 *58:A1 *58:A2 3.83508e-05
9 *59:A2 *58:A2 0
10 *59:A2 *20:10 9.6501e-06
11 *60:I *20:10 1.92789e-05
12 *67:I *20:10 2.04162e-05
13 *70:I *58:A2 5.3819e-05
14 *15:10 *58:A2 8.06142e-05
15 *15:25 *58:A2 2.24958e-05
16 *17:27 *20:10 7.26067e-05
*RES
1 *57:Z *20:10 7.47 
2 *20:10 *58:A2 17.46 
3 *20:10 *71:I 4.5 
*END

*D_NET *21 0.000500155
*CONN
*I *72:I I *D gf180mcu_fd_sc_mcu7t5v0__clkbuf_3
*I *60:ZN O *D gf180mcu_fd_sc_mcu7t5v0__clkinv_1
*CAP
1 *72:I 0.000196812
2 *60:ZN 0.000196812
3 *59:A2 *72:I 3.01487e-05
4 *60:I *72:I 1.22523e-05
5 *15:36 *72:I 3.96404e-05
6 *17:27 *72:I 0
7 *18:39 *72:I 7.191e-07
8 *20:10 *72:I 2.37695e-05
*RES
1 *60:ZN *72:I 10.35 
*END

*D_NET *22 0.000195243
*CONN
*I *73:I I *D gf180mcu_fd_sc_mcu7t5v0__clkbuf_3
*I *65:Z O *D gf180mcu_fd_sc_mcu7t5v0__clkbuf_1
*CAP
1 *73:I 9.76213e-05
2 *65:Z 9.76213e-05
*RES
1 *65:Z *73:I 9.63 
*END

*D_NET *23 0.000680562
*CONN
*I *74:I I *D gf180mcu_fd_sc_mcu7t5v0__clkbuf_3
*I *63:ZN O *D gf180mcu_fd_sc_mcu7t5v0__clkinv_1
*CAP
1 *74:I 0.000322439
2 *63:ZN 0.000322439
3 *74:I *75:I 2.21432e-05
4 *62:A2 *74:I 0
5 *18:22 *74:I 1.06463e-05
6 *18:28 *74:I 2.89427e-06
*RES
1 *63:ZN *74:I 11.07 
*END

*D_NET *24 0.00238442
*CONN
*I *64:A2 I *D gf180mcu_fd_sc_mcu7t5v0__and2_1
*I *75:I I *D gf180mcu_fd_sc_mcu7t5v0__clkbuf_3
*I *61:Z O *D gf180mcu_fd_sc_mcu7t5v0__and2_1
*CAP
1 *64:A2 0.000249502
2 *75:I 0.000190383
3 *61:Z 0.000134781
4 *24:8 0.000574666
5 *62:A1 *64:A2 9.35013e-05
6 *62:A1 *75:I 3.58729e-05
7 *62:A1 *24:8 1.79158e-05
8 *63:I *75:I 3.15941e-06
9 *63:I *24:8 1.49336e-05
10 *74:I *75:I 2.21432e-05
11 *15:36 *64:A2 6.19751e-05
12 *18:12 *75:I 0.000480025
13 *18:22 *64:A2 1.95296e-05
14 *18:22 *75:I 0.000354738
15 *18:22 *24:8 0.000131299
*RES
1 *61:Z *24:8 9.99 
2 *24:8 *75:I 11.25 
3 *24:8 *64:A2 10.89 
*END
