* NGSPICE file created from TOP_CHILE_OPEN_LDO_pex.ext - technology: gf180mcuD

.subckt TOP_CHILE_OPEN_LDO_pex iref vin_p vss feedback ref out vdd
* CM NMOS
X69 vss vss vss vss nfet_03v3 ad=0.65p pd=3.02u as=33.475p ps=0.14433m w=2.5u l=1u
X166 vss vss vss vss nfet_03v3 ad=0.65p pd=3.02u as=0 ps=0 w=2.5u l=1u
X505 vss vss vss vss nfet_03v3 ad=0.65p pd=3.02u as=0 ps=0 w=2.5u l=1u
X786 vss vss vss vss nfet_03v3 ad=0.65p pd=3.02u as=0 ps=0 w=2.5u l=1u
X1245 vss vss vss vss nfet_03v3 ad=1.525p pd=6.22u as=0 ps=0 w=2.5u l=1u
X1292 vss vss vss vss nfet_03v3 ad=0.65p pd=3.02u as=0 ps=0 w=2.5u l=1u
X1547 vss vss vss vss nfet_03v3 ad=0.65p pd=3.02u as=0 ps=0 w=2.5u l=1u
X1625 vss vss vss vss nfet_03v3 ad=1.525p pd=6.22u as=0 ps=0 w=2.5u l=1u
X1712 vss vss vss vss nfet_03v3 ad=0.65p pd=3.02u as=0 ps=0 w=2.5u l=1u
X1767 vss vss vss vss nfet_03v3 ad=1.525p pd=6.22u as=0 ps=0 w=2.5u l=1u
********************************************************************************
X1508  iref    iref  vss     vss  nfet_03v3 ad=0.65p pd=3.02u as=0.65p ps=3.02u w=2.5u l=1u
X317   vss     iref  iref    vss  nfet_03v3 ad=0.65p pd=3.02u as=0.65p ps=3.02u w=2.5u l=1u
*****
X130   vss     iref  op_out  vss  nfet_03v3 ad=0.65p pd=3.02u as=0.65p ps=3.02u w=2.5u l=1u
X392   vss     iref  op_out  vss  nfet_03v3 ad=0.65p pd=3.02u as=0.65p ps=3.02u w=2.5u l=1u
X572   vss     iref  op_out  vss  nfet_03v3 ad=0.65p pd=3.02u as=0.65p ps=3.02u w=2.5u l=1u
X865   vss     iref  op_out  vss  nfet_03v3 ad=0.65p pd=3.02u as=0.65p ps=3.02u w=2.5u l=1u
X1971  vss     iref  op_out  vss  nfet_03v3 ad=0.65p pd=3.02u as=0.65p ps=3.02u w=2.5u l=1u
X910   op_out  iref  vss     vss  nfet_03v3 ad=0.65p pd=3.02u as=0.65p ps=3.02u w=2.5u l=1u
X1129  op_out  iref  vss     vss  nfet_03v3 ad=0.65p pd=3.02u as=0.65p ps=3.02u w=2.5u l=1u
X1176  op_out  iref  vss     vss  nfet_03v3 ad=0.65p pd=3.02u as=0.65p ps=3.02u w=2.5u l=1u
X1426  op_out  iref  vss     vss  nfet_03v3 ad=0.65p pd=3.02u as=0.65p ps=3.02u w=2.5u l=1u
X1624  op_out  iref  vss     vss  nfet_03v3 ad=0.65p pd=3.02u as=0.65p ps=3.02u w=2.5u l=1u
*****
X454   vss     iref  cm      vss  nfet_03v3 ad=0.65p pd=3.02u as=0.65p ps=3.02u w=2.5u l=1u
X1571  cm      iref  vss     vss  nfet_03v3 ad=0.65p pd=3.02u as=0.65p ps=3.02u w=2.5u l=1u

* DIFF PAIR
X103   cm         vss    vss        vss nfet_03v3 ad=1.3p pd=5.52u as=3.075p ps=11.23u w=5u l=1u
X1950  vss        vss    cm         vss nfet_03v3 ad=3.05p pd=11.219999u as=1.3p ps=5.52u w=5u l=1u
********************************************************************************
X1179  diff_int   ref    cm         vss nfet_03v3 ad=1.3p pd=5.52u as=1.3p ps=5.52u w=5u l=1u
X2005  cm         ref    diff_int   vss nfet_03v3 ad=1.3p pd=5.52u as=1.3p ps=5.52u w=5u l=1u
X542   diff_vout  vin_p  cm         vss nfet_03v3 ad=1.3p pd=5.52u as=1.3p ps=5.52u w=5u l=1u
X1604  cm         vin_p  diff_vout  vss nfet_03v3 ad=1.3p pd=5.52u as=1.3p ps=5.52u w=5u l=1u


* CM PMOS
X1118 vdd vdd vdd vdd pfet_03v3 ad=3.25p pd=11.299999u as=0 ps=0 w=5u l=1u
X1390 vdd vdd vdd vdd pfet_03v3 ad=1.3p pd=5.52u as=0 ps=0 w=5u l=1u
********************************************************************************
X319 diff_vout diff_int vdd vdd pfet_03v3 ad=1.3p pd=5.52u as=1.3p ps=5.52u w=5u l=1u
X647 diff_int diff_int vdd vdd pfet_03v3 ad=1.3p pd=5.52u as=1.3p ps=5.52u w=5u l=1u
X1627 vdd diff_int diff_int vdd pfet_03v3 ad=1.3p pd=5.52u as=1.3p ps=5.52u w=5u l=1u
X1846 vdd diff_int diff_vout vdd pfet_03v3 ad=1.3p pd=5.52u as=1.3p ps=5.52u w=5u l=1u

* OUT PMOS
X131 vdd vdd vdd vdd pfet_03v3 ad=6.5p pd=25.519999u as=6.366214n ps=0.01721 w=25u l=1u
X1873 vdd vdd vdd vdd pfet_03v3 ad=16.25p pd=51.3u as=0 ps=0 w=25u l=1u
********************************************************************************
X373 vdd diff_vout op_out vdd pfet_03v3 ad=6.5p pd=25.519999u as=6.5p ps=25.519999u w=25u l=1u
X535 vdd diff_vout op_out vdd pfet_03v3 ad=6.5p pd=25.519999u as=6.5p ps=25.519999u w=25u l=1u
X1111 op_out diff_vout vdd vdd pfet_03v3 ad=6.5p pd=25.519999u as=6.5p ps=25.519999u w=25u l=1u
X1436 op_out diff_vout vdd vdd pfet_03v3 ad=6.5p pd=25.519999u as=6.5p ps=25.519999u w=25u l=1u

X1576 op_out cap_in cap_mim_2f0_m4m5_noshield c_width=22u c_length=22u

* OTA RES
X338   vss             vss             vss ppolyf_u_1k r_width=1u r_length=5u
X1477  vss             vss             vss ppolyf_u_1k r_width=1u r_length=5u
********************************************************************************
X767   a_331573_72398  cap_in  vss ppolyf_u_1k r_width=1u r_length=5u
X1057  a_331573_72398  diff_vout  vss ppolyf_u_1k r_width=1u r_length=5u
* VOLTAGE DIVIDER
X1901  vss             vss             vss ppolyf_u_1k r_width=1u r_length=20u
X1933  vss             vss             vss ppolyf_u_1k r_width=1u r_length=20u
********************************************************************************
X815   out             a_308821_72467  vss ppolyf_u_1k r_width=1u r_length=20u
X1506  a_309421_76595  a_308821_72467  vss ppolyf_u_1k r_width=1u r_length=20u
X1928  a_309421_76595  a_310621_72467  vss ppolyf_u_1k r_width=1u r_length=20u
X581   a_311221_76595  a_310621_72467  vss ppolyf_u_1k r_width=1u r_length=20u
X871   a_311221_76595  a_313021_72467  vss ppolyf_u_1k r_width=1u r_length=20u
X1831  a_313621_76595  a_313021_72467  vss ppolyf_u_1k r_width=1u r_length=20u
X51    a_313621_76595  a_315421_72467  vss ppolyf_u_1k r_width=1u r_length=20u
X757   a_316021_76595  a_315421_72467  vss ppolyf_u_1k r_width=1u r_length=20u
X306   a_316021_76595  a_317221_72467  vss ppolyf_u_1k r_width=1u r_length=20u
X1233  feedback        a_317221_72467  vss ppolyf_u_1k r_width=1u r_length=20u
X1653  feedback        a_314821_72467  vss ppolyf_u_1k r_width=1u r_length=20u
X1391  a_314221_76595  a_314821_72467  vss ppolyf_u_1k r_width=1u r_length=20u
X483   a_314221_76595  a_312421_72467  vss ppolyf_u_1k r_width=1u r_length=20u
X181   a_311821_76595  a_312421_72467  vss ppolyf_u_1k r_width=1u r_length=20u
X1536  a_311821_76595  a_310021_72467  vss ppolyf_u_1k r_width=1u r_length=20u
X1009  vss             a_310021_72467  vss ppolyf_u_1k r_width=1u r_length=20u

* WAFFLE TRANSISTOR
X0 out op_out vdd vdd pfet_03v3 ad=6.322p pd=16.92u as=5.163599p ps=17.56u w=4.38u l=0.5u
X1 out op_out vdd vdd pfet_03v3 ad=6.322p pd=16.92u as=5.163599p ps=17.56u w=4.38u l=0.5u
X2 out op_out vdd vdd pfet_03v3 ad=6.322p pd=16.92u as=5.163599p ps=17.56u w=4.38u l=0.5u
X3 out op_out vdd vdd pfet_03v3 ad=6.322p pd=16.92u as=5.163599p ps=17.56u w=4.38u l=0.5u
X4 out op_out vdd vdd pfet_03v3 ad=6.322p pd=16.92u as=5.163599p ps=17.56u w=4.38u l=0.5u
X5 out op_out vdd vdd pfet_03v3 ad=6.322p pd=16.92u as=5.163599p ps=17.56u w=4.38u l=0.5u
X6 out op_out vdd vdd pfet_03v3 ad=5.163599p pd=17.56u as=6.322p ps=16.92u w=4.38u l=0.5u
X7 out op_out vdd vdd pfet_03v3 ad=5.163599p pd=17.56u as=6.322p ps=16.92u w=4.38u l=0.5u
X8 out op_out vdd vdd pfet_03v3 ad=6.322p pd=16.92u as=5.163599p ps=17.56u w=4.38u l=0.5u
X9 out op_out vdd vdd pfet_03v3 ad=6.322p pd=16.92u as=5.163599p ps=17.56u w=4.38u l=0.5u
X10 out op_out vdd vdd pfet_03v3 ad=6.322p pd=16.92u as=3.8988p ps=13.77u w=4.38u l=0.5u
X11 out op_out vdd vdd pfet_03v3 ad=5.163599p pd=17.56u as=6.322p ps=16.92u w=4.38u l=0.5u
X12 out op_out vdd vdd pfet_03v3 ad=6.322p pd=16.92u as=5.163599p ps=17.56u w=4.38u l=0.5u
X13 out op_out vdd vdd pfet_03v3 ad=4.814p pd=13.61u as=3.8988p ps=13.77u w=4.38u l=0.5u
X14 out op_out vdd vdd pfet_03v3 ad=6.322p pd=16.92u as=5.163599p ps=17.56u w=4.38u l=0.5u
X15 out op_out vdd vdd pfet_03v3 ad=6.322p pd=16.92u as=5.163599p ps=17.56u w=4.38u l=0.5u
X16 out op_out vdd vdd pfet_03v3 ad=5.163599p pd=17.56u as=6.322p ps=16.92u w=4.38u l=0.5u
X17 out op_out vdd vdd pfet_03v3 ad=4.814p pd=13.61u as=3.8988p ps=13.77u w=4.38u l=0.5u
X18 out op_out vdd vdd pfet_03v3 ad=6.322p pd=16.92u as=5.163599p ps=17.56u w=4.38u l=0.5u
X19 out op_out vdd vdd pfet_03v3 ad=6.322p pd=16.92u as=5.163599p ps=17.56u w=4.38u l=0.5u
X20 out op_out vdd vdd pfet_03v3 ad=3.8988p pd=13.77u as=4.814p ps=13.61u w=4.38u l=0.5u
X21 out op_out vdd vdd pfet_03v3 ad=5.163599p pd=17.56u as=6.322p ps=16.92u w=4.38u l=0.5u
X22 out op_out vdd vdd pfet_03v3 ad=6.322p pd=16.92u as=5.163599p ps=17.56u w=4.38u l=0.5u
X23 out op_out vdd vdd pfet_03v3 ad=6.322p pd=16.92u as=5.163599p ps=17.56u w=4.38u l=0.5u
X24 out op_out vdd vdd pfet_03v3 ad=6.322p pd=16.92u as=5.163599p ps=17.56u w=4.38u l=0.5u
X25 out op_out vdd vdd pfet_03v3 ad=3.8988p pd=13.77u as=4.814p ps=13.61u w=4.38u l=0.5u
X26 out op_out vdd vdd pfet_03v3 ad=5.163599p pd=17.56u as=6.322p ps=16.92u w=4.38u l=0.5u
X27 out op_out vdd vdd pfet_03v3 ad=6.322p pd=16.92u as=5.163599p ps=17.56u w=4.38u l=0.5u
X28 out op_out vdd vdd pfet_03v3 ad=6.322p pd=16.92u as=5.163599p ps=17.56u w=4.38u l=0.5u
X29 out op_out vdd vdd pfet_03v3 ad=3.8988p pd=13.77u as=4.814p ps=13.61u w=4.38u l=0.5u
X30 out op_out vdd vdd pfet_03v3 ad=6.322p pd=16.92u as=5.163599p ps=17.56u w=4.38u l=0.5u
X31 out op_out vdd vdd pfet_03v3 ad=6.322p pd=16.92u as=5.163599p ps=17.56u w=4.38u l=0.5u
X32 out op_out vdd vdd pfet_03v3 ad=6.322p pd=16.92u as=5.163599p ps=17.56u w=4.38u l=0.5u
X33 out op_out vdd vdd pfet_03v3 ad=6.322p pd=16.92u as=5.163599p ps=17.56u w=4.38u l=0.5u
X34 out op_out vdd vdd pfet_03v3 ad=6.322p pd=16.92u as=5.163599p ps=17.56u w=4.38u l=0.5u
X35 out op_out vdd vdd pfet_03v3 ad=6.322p pd=16.92u as=5.163599p ps=17.56u w=4.38u l=0.5u
X36 out op_out vdd vdd pfet_03v3 ad=5.163599p pd=17.56u as=6.322p ps=16.92u w=4.38u l=0.5u
X37 out op_out vdd vdd pfet_03v3 ad=6.322p pd=16.92u as=5.163599p ps=17.56u w=4.38u l=0.5u
X38 out op_out vdd vdd pfet_03v3 ad=6.322p pd=16.92u as=5.163599p ps=17.56u w=4.38u l=0.5u
X39 out op_out vdd vdd pfet_03v3 ad=6.322p pd=16.92u as=5.163599p ps=17.56u w=4.38u l=0.5u
X40 out op_out vdd vdd pfet_03v3 ad=6.322p pd=16.92u as=5.163599p ps=17.56u w=4.38u l=0.5u
X41 out op_out vdd vdd pfet_03v3 ad=6.322p pd=16.92u as=5.163599p ps=17.56u w=4.38u l=0.5u
X42 out op_out vdd vdd pfet_03v3 ad=6.322p pd=16.92u as=5.163599p ps=17.56u w=4.38u l=0.5u
X43 out op_out vdd vdd pfet_03v3 ad=6.322p pd=16.92u as=5.163599p ps=17.56u w=4.38u l=0.5u
X44 out op_out vdd vdd pfet_03v3 ad=5.163599p pd=17.56u as=6.322p ps=16.92u w=4.38u l=0.5u
X45 out op_out vdd vdd pfet_03v3 ad=6.322p pd=16.92u as=5.163599p ps=17.56u w=4.38u l=0.5u
X46 out op_out vdd vdd pfet_03v3 ad=5.163599p pd=17.56u as=6.322p ps=16.92u w=4.38u l=0.5u
X47 out op_out vdd vdd pfet_03v3 ad=5.163599p pd=17.56u as=6.322p ps=16.92u w=4.38u l=0.5u
X48 out op_out vdd vdd pfet_03v3 ad=6.322p pd=16.92u as=5.163599p ps=17.56u w=4.38u l=0.5u
X49 out op_out vdd vdd pfet_03v3 ad=6.322p pd=16.92u as=5.163599p ps=17.56u w=4.38u l=0.5u
X50 out op_out vdd vdd pfet_03v3 ad=6.322p pd=16.92u as=5.163599p ps=17.56u w=4.38u l=0.5u
X52 out op_out vdd vdd pfet_03v3 ad=6.322p pd=16.92u as=5.163599p ps=17.56u w=4.38u l=0.5u
X53 out op_out vdd vdd pfet_03v3 ad=5.163599p pd=17.56u as=6.322p ps=16.92u w=4.38u l=0.5u
X54 out op_out vdd vdd pfet_03v3 ad=5.163599p pd=17.56u as=6.322p ps=16.92u w=4.38u l=0.5u
X55 out op_out vdd vdd pfet_03v3 ad=5.163599p pd=17.56u as=6.322p ps=16.92u w=4.38u l=0.5u
X56 out op_out vdd vdd pfet_03v3 ad=5.163599p pd=17.56u as=6.322p ps=16.92u w=4.38u l=0.5u
X57 out op_out vdd vdd pfet_03v3 ad=5.163599p pd=17.56u as=6.322p ps=16.92u w=4.38u l=0.5u
X58 out op_out vdd vdd pfet_03v3 ad=5.163599p pd=17.56u as=6.322p ps=16.92u w=4.38u l=0.5u
X59 out op_out vdd vdd pfet_03v3 ad=5.163599p pd=17.56u as=6.322p ps=16.92u w=4.38u l=0.5u
X60 out op_out vdd vdd pfet_03v3 ad=5.163599p pd=17.56u as=6.322p ps=16.92u w=4.38u l=0.5u
X61 out op_out vdd vdd pfet_03v3 ad=6.322p pd=16.92u as=5.163599p ps=17.56u w=4.38u l=0.5u
X62 out op_out vdd vdd pfet_03v3 ad=6.322p pd=16.92u as=5.163599p ps=17.56u w=4.38u l=0.5u
X63 out op_out vdd vdd pfet_03v3 ad=3.8988p pd=13.77u as=3.2335p ps=9.38u w=4.38u l=0.5u
X64 out op_out vdd vdd pfet_03v3 ad=6.322p pd=16.92u as=5.163599p ps=17.56u w=4.38u l=0.5u
X65 out op_out vdd vdd pfet_03v3 ad=6.322p pd=16.92u as=5.163599p ps=17.56u w=4.38u l=0.5u
X66 out op_out vdd vdd pfet_03v3 ad=5.163599p pd=17.56u as=6.322p ps=16.92u w=4.38u l=0.5u
X67 out op_out vdd vdd pfet_03v3 ad=5.163599p pd=17.56u as=6.322p ps=16.92u w=4.38u l=0.5u
X68 out op_out vdd vdd pfet_03v3 ad=5.163599p pd=17.56u as=6.322p ps=16.92u w=4.38u l=0.5u
X70 out op_out vdd vdd pfet_03v3 ad=5.163599p pd=17.56u as=6.322p ps=16.92u w=4.38u l=0.5u
X71 out op_out vdd vdd pfet_03v3 ad=5.163599p pd=17.56u as=6.322p ps=16.92u w=4.38u l=0.5u
X72 out op_out vdd vdd pfet_03v3 ad=6.322p pd=16.92u as=5.163599p ps=17.56u w=4.38u l=0.5u
X73 out op_out vdd vdd pfet_03v3 ad=6.322p pd=16.92u as=5.163599p ps=17.56u w=4.38u l=0.5u
X74 out op_out vdd vdd pfet_03v3 ad=6.322p pd=16.92u as=5.163599p ps=17.56u w=4.38u l=0.5u
X75 out op_out vdd vdd pfet_03v3 ad=6.322p pd=16.92u as=5.163599p ps=17.56u w=4.38u l=0.5u
X76 out op_out vdd vdd pfet_03v3 ad=5.163599p pd=17.56u as=6.322p ps=16.92u w=4.38u l=0.5u
X77 out op_out vdd vdd pfet_03v3 ad=5.163599p pd=17.56u as=6.322p ps=16.92u w=4.38u l=0.5u
X78 out op_out vdd vdd pfet_03v3 ad=5.163599p pd=17.56u as=6.322p ps=16.92u w=4.38u l=0.5u
X79 out op_out vdd vdd pfet_03v3 ad=5.163599p pd=17.56u as=6.322p ps=16.92u w=4.38u l=0.5u
X80 out op_out vdd vdd pfet_03v3 ad=5.163599p pd=17.56u as=6.322p ps=16.92u w=4.38u l=0.5u
X81 out op_out vdd vdd pfet_03v3 ad=5.163599p pd=17.56u as=6.322p ps=16.92u w=4.38u l=0.5u
X82 out op_out vdd vdd pfet_03v3 ad=6.322p pd=16.92u as=5.163599p ps=17.56u w=4.38u l=0.5u
X83 out op_out vdd vdd pfet_03v3 ad=5.163599p pd=17.56u as=6.322p ps=16.92u w=4.38u l=0.5u
X84 out op_out vdd vdd pfet_03v3 ad=5.163599p pd=17.56u as=6.322p ps=16.92u w=4.38u l=0.5u
X85 out op_out vdd vdd pfet_03v3 ad=5.163599p pd=17.56u as=6.322p ps=16.92u w=4.38u l=0.5u
X86 out op_out vdd vdd pfet_03v3 ad=5.163599p pd=17.56u as=6.322p ps=16.92u w=4.38u l=0.5u
X87 out op_out vdd vdd pfet_03v3 ad=5.163599p pd=17.56u as=6.322p ps=16.92u w=4.38u l=0.5u
X88 out op_out vdd vdd pfet_03v3 ad=5.163599p pd=17.56u as=6.322p ps=16.92u w=4.38u l=0.5u
X89 out op_out vdd vdd pfet_03v3 ad=5.163599p pd=17.56u as=6.322p ps=16.92u w=4.38u l=0.5u
X90 out op_out vdd vdd pfet_03v3 ad=6.322p pd=16.92u as=5.163599p ps=17.56u w=4.38u l=0.5u
X91 out op_out vdd vdd pfet_03v3 ad=5.163599p pd=17.56u as=6.322p ps=16.92u w=4.38u l=0.5u
X92 out op_out vdd vdd pfet_03v3 ad=5.163599p pd=17.56u as=6.322p ps=16.92u w=4.38u l=0.5u
X93 out op_out vdd vdd pfet_03v3 ad=5.163599p pd=17.56u as=6.322p ps=16.92u w=4.38u l=0.5u
X94 out op_out vdd vdd pfet_03v3 ad=6.322p pd=16.92u as=5.163599p ps=17.56u w=4.38u l=0.5u
X95 out op_out vdd vdd pfet_03v3 ad=5.163599p pd=17.56u as=6.322p ps=16.92u w=4.38u l=0.5u
X96 out op_out vdd vdd pfet_03v3 ad=6.322p pd=16.92u as=5.163599p ps=17.56u w=4.38u l=0.5u
X97 out op_out vdd vdd pfet_03v3 ad=5.163599p pd=17.56u as=6.322p ps=16.92u w=4.38u l=0.5u
X98 out op_out vdd vdd pfet_03v3 ad=6.322p pd=16.92u as=5.163599p ps=17.56u w=4.38u l=0.5u
X99 out op_out vdd vdd pfet_03v3 ad=5.163599p pd=17.56u as=6.322p ps=16.92u w=4.38u l=0.5u
X100 out op_out vdd vdd pfet_03v3 ad=5.163599p pd=17.56u as=4.814p ps=13.61u w=4.38u l=0.5u
X101 out op_out vdd vdd pfet_03v3 ad=6.322p pd=16.92u as=5.163599p ps=17.56u w=4.38u l=0.5u
X102 out op_out vdd vdd pfet_03v3 ad=5.163599p pd=17.56u as=6.322p ps=16.92u w=4.38u l=0.5u
X104 out op_out vdd vdd pfet_03v3 ad=6.322p pd=16.92u as=5.163599p ps=17.56u w=4.38u l=0.5u
X105 out op_out vdd vdd pfet_03v3 ad=6.322p pd=16.92u as=5.163599p ps=17.56u w=4.38u l=0.5u
X106 out op_out vdd vdd pfet_03v3 ad=6.322p pd=16.92u as=5.163599p ps=17.56u w=4.38u l=0.5u
X107 out op_out vdd vdd pfet_03v3 ad=3.8988p pd=13.77u as=4.814p ps=13.61u w=4.38u l=0.5u
X108 out op_out vdd vdd pfet_03v3 ad=5.163599p pd=17.56u as=6.322p ps=16.92u w=4.38u l=0.5u
X109 out op_out vdd vdd pfet_03v3 ad=5.163599p pd=17.56u as=6.322p ps=16.92u w=4.38u l=0.5u
X110 out op_out vdd vdd pfet_03v3 ad=6.322p pd=16.92u as=5.163599p ps=17.56u w=4.38u l=0.5u
X111 out op_out vdd vdd pfet_03v3 ad=5.163599p pd=17.56u as=6.322p ps=16.92u w=4.38u l=0.5u
X112 out op_out vdd vdd pfet_03v3 ad=5.163599p pd=17.56u as=6.322p ps=16.92u w=4.38u l=0.5u
X113 out op_out vdd vdd pfet_03v3 ad=5.163599p pd=17.56u as=6.322p ps=16.92u w=4.38u l=0.5u
X114 out op_out vdd vdd pfet_03v3 ad=5.163599p pd=17.56u as=6.322p ps=16.92u w=4.38u l=0.5u
X115 out op_out vdd vdd pfet_03v3 ad=6.322p pd=16.92u as=5.163599p ps=17.56u w=4.38u l=0.5u
X116 out op_out vdd vdd pfet_03v3 ad=5.163599p pd=17.56u as=6.322p ps=16.92u w=4.38u l=0.5u
X117 out op_out vdd vdd pfet_03v3 ad=5.163599p pd=17.56u as=6.322p ps=16.92u w=4.38u l=0.5u
X118 out op_out vdd vdd pfet_03v3 ad=5.163599p pd=17.56u as=6.322p ps=16.92u w=4.38u l=0.5u
X119 out op_out vdd vdd pfet_03v3 ad=5.163599p pd=17.56u as=6.322p ps=16.92u w=4.38u l=0.5u
X120 out op_out vdd vdd pfet_03v3 ad=6.322p pd=16.92u as=5.163599p ps=17.56u w=4.38u l=0.5u
X121 out op_out vdd vdd pfet_03v3 ad=6.322p pd=16.92u as=5.163599p ps=17.56u w=4.38u l=0.5u
X122 out op_out vdd vdd pfet_03v3 ad=6.322p pd=16.92u as=5.163599p ps=17.56u w=4.38u l=0.5u
X123 out op_out vdd vdd pfet_03v3 ad=5.163599p pd=17.56u as=6.322p ps=16.92u w=4.38u l=0.5u
X124 out op_out vdd vdd pfet_03v3 ad=6.322p pd=16.92u as=5.163599p ps=17.56u w=4.38u l=0.5u
X125 out op_out vdd vdd pfet_03v3 ad=5.163599p pd=17.56u as=6.322p ps=16.92u w=4.38u l=0.5u
X126 out op_out vdd vdd pfet_03v3 ad=6.322p pd=16.92u as=5.163599p ps=17.56u w=4.38u l=0.5u
X127 out op_out vdd vdd pfet_03v3 ad=6.322p pd=16.92u as=5.163599p ps=17.56u w=4.38u l=0.5u
X128 out op_out vdd vdd pfet_03v3 ad=6.322p pd=16.92u as=5.163599p ps=17.56u w=4.38u l=0.5u
X129 out op_out vdd vdd pfet_03v3 ad=6.322p pd=16.92u as=5.163599p ps=17.56u w=4.38u l=0.5u
X132 out op_out vdd vdd pfet_03v3 ad=5.163599p pd=17.56u as=6.322p ps=16.92u w=4.38u l=0.5u
X133 out op_out vdd vdd pfet_03v3 ad=5.163599p pd=17.56u as=6.322p ps=16.92u w=4.38u l=0.5u
X134 out op_out vdd vdd pfet_03v3 ad=6.322p pd=16.92u as=5.163599p ps=17.56u w=4.38u l=0.5u
X135 out op_out vdd vdd pfet_03v3 ad=6.322p pd=16.92u as=5.163599p ps=17.56u w=4.38u l=0.5u
X136 out op_out vdd vdd pfet_03v3 ad=5.163599p pd=17.56u as=6.322p ps=16.92u w=4.38u l=0.5u
X137 out op_out vdd vdd pfet_03v3 ad=5.163599p pd=17.56u as=6.322p ps=16.92u w=4.38u l=0.5u
X138 out op_out vdd vdd pfet_03v3 ad=6.322p pd=16.92u as=5.163599p ps=17.56u w=4.38u l=0.5u
X139 out op_out vdd vdd pfet_03v3 ad=6.322p pd=16.92u as=5.163599p ps=17.56u w=4.38u l=0.5u
X140 out op_out vdd vdd pfet_03v3 ad=6.322p pd=16.92u as=5.163599p ps=17.56u w=4.38u l=0.5u
X141 out op_out vdd vdd pfet_03v3 ad=6.322p pd=16.92u as=5.163599p ps=17.56u w=4.38u l=0.5u
X142 out op_out vdd vdd pfet_03v3 ad=6.322p pd=16.92u as=5.163599p ps=17.56u w=4.38u l=0.5u
X143 out op_out vdd vdd pfet_03v3 ad=6.322p pd=16.92u as=5.163599p ps=17.56u w=4.38u l=0.5u
X144 out op_out vdd vdd pfet_03v3 ad=5.163599p pd=17.56u as=6.322p ps=16.92u w=4.38u l=0.5u
X145 out op_out vdd vdd pfet_03v3 ad=6.322p pd=16.92u as=5.163599p ps=17.56u w=4.38u l=0.5u
X146 out op_out vdd vdd pfet_03v3 ad=6.322p pd=16.92u as=5.163599p ps=17.56u w=4.38u l=0.5u
X147 out op_out vdd vdd pfet_03v3 ad=6.322p pd=16.92u as=5.163599p ps=17.56u w=4.38u l=0.5u
X148 out op_out vdd vdd pfet_03v3 ad=6.322p pd=16.92u as=5.163599p ps=17.56u w=4.38u l=0.5u
X149 out op_out vdd vdd pfet_03v3 ad=6.322p pd=16.92u as=5.163599p ps=17.56u w=4.38u l=0.5u
X150 out op_out vdd vdd pfet_03v3 ad=6.322p pd=16.92u as=5.163599p ps=17.56u w=4.38u l=0.5u
X151 out op_out vdd vdd pfet_03v3 ad=6.322p pd=16.92u as=5.163599p ps=17.56u w=4.38u l=0.5u
X152 out op_out vdd vdd pfet_03v3 ad=3.8988p pd=13.77u as=6.322p ps=16.92u w=4.38u l=0.5u
X153 out op_out vdd vdd pfet_03v3 ad=6.322p pd=16.92u as=5.163599p ps=17.56u w=4.38u l=0.5u
X154 out op_out vdd vdd pfet_03v3 ad=6.322p pd=16.92u as=5.163599p ps=17.56u w=4.38u l=0.5u
X155 out op_out vdd vdd pfet_03v3 ad=5.163599p pd=17.56u as=6.322p ps=16.92u w=4.38u l=0.5u
X156 out op_out vdd vdd pfet_03v3 ad=5.163599p pd=17.56u as=6.322p ps=16.92u w=4.38u l=0.5u
X157 out op_out vdd vdd pfet_03v3 ad=5.163599p pd=17.56u as=6.322p ps=16.92u w=4.38u l=0.5u
X158 out op_out vdd vdd pfet_03v3 ad=6.322p pd=16.92u as=5.163599p ps=17.56u w=4.38u l=0.5u
X159 out op_out vdd vdd pfet_03v3 ad=6.322p pd=16.92u as=5.163599p ps=17.56u w=4.38u l=0.5u
X160 out op_out vdd vdd pfet_03v3 ad=5.163599p pd=17.56u as=6.322p ps=16.92u w=4.38u l=0.5u
X161 out op_out vdd vdd pfet_03v3 ad=6.322p pd=16.92u as=5.163599p ps=17.56u w=4.38u l=0.5u
X162 out op_out vdd vdd pfet_03v3 ad=6.322p pd=16.92u as=5.163599p ps=17.56u w=4.38u l=0.5u
X163 out op_out vdd vdd pfet_03v3 ad=4.814p pd=13.61u as=3.8988p ps=13.77u w=4.38u l=0.5u
X164 out op_out vdd vdd pfet_03v3 ad=5.163599p pd=17.56u as=6.322p ps=16.92u w=4.38u l=0.5u
X165 out op_out vdd vdd pfet_03v3 ad=6.322p pd=16.92u as=5.163599p ps=17.56u w=4.38u l=0.5u
X167 out op_out vdd vdd pfet_03v3 ad=5.163599p pd=17.56u as=6.322p ps=16.92u w=4.38u l=0.5u
X168 out op_out vdd vdd pfet_03v3 ad=6.322p pd=16.92u as=5.163599p ps=17.56u w=4.38u l=0.5u
X169 out op_out vdd vdd pfet_03v3 ad=5.163599p pd=17.56u as=6.322p ps=16.92u w=4.38u l=0.5u
X170 out op_out vdd vdd pfet_03v3 ad=6.322p pd=16.92u as=5.163599p ps=17.56u w=4.38u l=0.5u
X171 out op_out vdd vdd pfet_03v3 ad=5.163599p pd=17.56u as=6.322p ps=16.92u w=4.38u l=0.5u
X172 out op_out vdd vdd pfet_03v3 ad=5.163599p pd=17.56u as=6.322p ps=16.92u w=4.38u l=0.5u
X173 out op_out vdd vdd pfet_03v3 ad=6.322p pd=16.92u as=3.8988p ps=13.77u w=4.38u l=0.5u
X174 out op_out vdd vdd pfet_03v3 ad=6.322p pd=16.92u as=5.163599p ps=17.56u w=4.38u l=0.5u
X175 out op_out vdd vdd pfet_03v3 ad=6.322p pd=16.92u as=5.163599p ps=17.56u w=4.38u l=0.5u
X176 out op_out vdd vdd pfet_03v3 ad=6.322p pd=16.92u as=5.163599p ps=17.56u w=4.38u l=0.5u
X177 out op_out vdd vdd pfet_03v3 ad=6.322p pd=16.92u as=3.8988p ps=13.77u w=4.38u l=0.5u
X178 out op_out vdd vdd pfet_03v3 ad=6.322p pd=16.92u as=5.163599p ps=17.56u w=4.38u l=0.5u
X179 out op_out vdd vdd pfet_03v3 ad=5.163599p pd=17.56u as=6.322p ps=16.92u w=4.38u l=0.5u
X180 out op_out vdd vdd pfet_03v3 ad=5.163599p pd=17.56u as=6.322p ps=16.92u w=4.38u l=0.5u
X182 out op_out vdd vdd pfet_03v3 ad=6.322p pd=16.92u as=5.163599p ps=17.56u w=4.38u l=0.5u
X183 out op_out vdd vdd pfet_03v3 ad=6.322p pd=16.92u as=5.163599p ps=17.56u w=4.38u l=0.5u
X184 out op_out vdd vdd pfet_03v3 ad=5.163599p pd=17.56u as=6.322p ps=16.92u w=4.38u l=0.5u
X185 out op_out vdd vdd pfet_03v3 ad=5.163599p pd=17.56u as=6.322p ps=16.92u w=4.38u l=0.5u
X186 out op_out vdd vdd pfet_03v3 ad=5.163599p pd=17.56u as=6.322p ps=16.92u w=4.38u l=0.5u
X187 out op_out vdd vdd pfet_03v3 ad=5.163599p pd=17.56u as=6.322p ps=16.92u w=4.38u l=0.5u
X188 out op_out vdd vdd pfet_03v3 ad=6.322p pd=16.92u as=5.163599p ps=17.56u w=4.38u l=0.5u
X189 out op_out vdd vdd pfet_03v3 ad=5.163599p pd=17.56u as=6.322p ps=16.92u w=4.38u l=0.5u
X190 out op_out vdd vdd pfet_03v3 ad=5.163599p pd=17.56u as=4.814p ps=13.61u w=4.38u l=0.5u
X191 out op_out vdd vdd pfet_03v3 ad=4.814p pd=13.61u as=5.163599p ps=17.56u w=4.38u l=0.5u
X192 out op_out vdd vdd pfet_03v3 ad=5.163599p pd=17.56u as=6.322p ps=16.92u w=4.38u l=0.5u
X193 out op_out vdd vdd pfet_03v3 ad=3.2335p pd=9.38u as=3.8988p ps=13.77u w=4.38u l=0.5u
X194 out op_out vdd vdd pfet_03v3 ad=6.322p pd=16.92u as=5.163599p ps=17.56u w=4.38u l=0.5u
X195 out op_out vdd vdd pfet_03v3 ad=6.322p pd=16.92u as=5.163599p ps=17.56u w=4.38u l=0.5u
X196 out op_out vdd vdd pfet_03v3 ad=5.163599p pd=17.56u as=6.322p ps=16.92u w=4.38u l=0.5u
X197 out op_out vdd vdd pfet_03v3 ad=4.814p pd=13.61u as=3.8988p ps=13.77u w=4.38u l=0.5u
X198 out op_out vdd vdd pfet_03v3 ad=5.163599p pd=17.56u as=6.322p ps=16.92u w=4.38u l=0.5u
X199 out op_out vdd vdd pfet_03v3 ad=5.163599p pd=17.56u as=6.322p ps=16.92u w=4.38u l=0.5u
X200 out op_out vdd vdd pfet_03v3 ad=5.163599p pd=17.56u as=6.322p ps=16.92u w=4.38u l=0.5u
X201 out op_out vdd vdd pfet_03v3 ad=4.814p pd=13.61u as=5.163599p ps=17.56u w=4.38u l=0.5u
X202 out op_out vdd vdd pfet_03v3 ad=5.163599p pd=17.56u as=6.322p ps=16.92u w=4.38u l=0.5u
X203 out op_out vdd vdd pfet_03v3 ad=5.163599p pd=17.56u as=6.322p ps=16.92u w=4.38u l=0.5u
X204 out op_out vdd vdd pfet_03v3 ad=6.322p pd=16.92u as=5.163599p ps=17.56u w=4.38u l=0.5u
X205 out op_out vdd vdd pfet_03v3 ad=6.322p pd=16.92u as=5.163599p ps=17.56u w=4.38u l=0.5u
X206 out op_out vdd vdd pfet_03v3 ad=6.322p pd=16.92u as=5.163599p ps=17.56u w=4.38u l=0.5u
X207 out op_out vdd vdd pfet_03v3 ad=6.322p pd=16.92u as=3.8988p ps=13.77u w=4.38u l=0.5u
X208 out op_out vdd vdd pfet_03v3 ad=6.322p pd=16.92u as=5.163599p ps=17.56u w=4.38u l=0.5u
X209 out op_out vdd vdd pfet_03v3 ad=3.8988p pd=13.77u as=6.322p ps=16.92u w=4.38u l=0.5u
X210 out op_out vdd vdd pfet_03v3 ad=4.814p pd=13.61u as=2.6079p ps=9.38u w=4.38u l=0.5u
X211 out op_out vdd vdd pfet_03v3 ad=6.322p pd=16.92u as=5.163599p ps=17.56u w=4.38u l=0.5u
X212 out op_out vdd vdd pfet_03v3 ad=3.8988p pd=13.77u as=4.814p ps=13.61u w=4.38u l=0.5u
X213 out op_out vdd vdd pfet_03v3 ad=6.322p pd=16.92u as=5.163599p ps=17.56u w=4.38u l=0.5u
X214 out op_out vdd vdd pfet_03v3 ad=5.163599p pd=17.56u as=6.322p ps=16.92u w=4.38u l=0.5u
X215 out op_out vdd vdd pfet_03v3 ad=5.163599p pd=17.56u as=6.322p ps=16.92u w=4.38u l=0.5u
X216 out op_out vdd vdd pfet_03v3 ad=5.163599p pd=17.56u as=6.322p ps=16.92u w=4.38u l=0.5u
X217 out op_out vdd vdd pfet_03v3 ad=6.322p pd=16.92u as=5.163599p ps=17.56u w=4.38u l=0.5u
X218 out op_out vdd vdd pfet_03v3 ad=5.163599p pd=17.56u as=6.322p ps=16.92u w=4.38u l=0.5u
X219 out op_out vdd vdd pfet_03v3 ad=3.8988p pd=13.77u as=4.814p ps=13.61u w=4.38u l=0.5u
X220 out op_out vdd vdd pfet_03v3 ad=5.163599p pd=17.56u as=6.322p ps=16.92u w=4.38u l=0.5u
X221 out op_out vdd vdd pfet_03v3 ad=6.322p pd=16.92u as=5.163599p ps=17.56u w=4.38u l=0.5u
X222 out op_out vdd vdd pfet_03v3 ad=6.322p pd=16.92u as=5.163599p ps=17.56u w=4.38u l=0.5u
X223 out op_out vdd vdd pfet_03v3 ad=6.322p pd=16.92u as=5.163599p ps=17.56u w=4.38u l=0.5u
X224 out op_out vdd vdd pfet_03v3 ad=5.163599p pd=17.56u as=6.322p ps=16.92u w=4.38u l=0.5u
X225 out op_out vdd vdd pfet_03v3 ad=2.6079p pd=9.38u as=4.814p ps=13.61u w=4.38u l=0.5u
X226 out op_out vdd vdd pfet_03v3 ad=5.163599p pd=17.56u as=6.322p ps=16.92u w=4.38u l=0.5u
X227 out op_out vdd vdd pfet_03v3 ad=4.814p pd=13.61u as=3.8988p ps=13.77u w=4.38u l=0.5u
X228 out op_out vdd vdd pfet_03v3 ad=6.322p pd=16.92u as=5.163599p ps=17.56u w=4.38u l=0.5u
X229 out op_out vdd vdd pfet_03v3 ad=6.322p pd=16.92u as=5.163599p ps=17.56u w=4.38u l=0.5u
X230 out op_out vdd vdd pfet_03v3 ad=3.8988p pd=13.77u as=6.322p ps=16.92u w=4.38u l=0.5u
X231 out op_out vdd vdd pfet_03v3 ad=6.322p pd=16.92u as=5.163599p ps=17.56u w=4.38u l=0.5u
X232 out op_out vdd vdd pfet_03v3 ad=5.163599p pd=17.56u as=6.322p ps=16.92u w=4.38u l=0.5u
X233 out op_out vdd vdd pfet_03v3 ad=4.814p pd=13.61u as=2.6079p ps=9.38u w=4.38u l=0.5u
X234 out op_out vdd vdd pfet_03v3 ad=5.163599p pd=17.56u as=6.322p ps=16.92u w=4.38u l=0.5u
X235 out op_out vdd vdd pfet_03v3 ad=5.163599p pd=17.56u as=6.322p ps=16.92u w=4.38u l=0.5u
X236 out op_out vdd vdd pfet_03v3 ad=6.322p pd=16.92u as=5.163599p ps=17.56u w=4.38u l=0.5u
X237 out op_out vdd vdd pfet_03v3 ad=5.163599p pd=17.56u as=6.322p ps=16.92u w=4.38u l=0.5u
X238 out op_out vdd vdd pfet_03v3 ad=5.163599p pd=17.56u as=6.322p ps=16.92u w=4.38u l=0.5u
X239 out op_out vdd vdd pfet_03v3 ad=3.8988p pd=13.77u as=4.814p ps=13.61u w=4.38u l=0.5u
X240 out op_out vdd vdd pfet_03v3 ad=5.163599p pd=17.56u as=6.322p ps=16.92u w=4.38u l=0.5u
X241 out op_out vdd vdd pfet_03v3 ad=5.163599p pd=17.56u as=6.322p ps=16.92u w=4.38u l=0.5u
X242 out op_out vdd vdd pfet_03v3 ad=5.163599p pd=17.56u as=6.322p ps=16.92u w=4.38u l=0.5u
X243 out op_out vdd vdd pfet_03v3 ad=6.322p pd=16.92u as=5.163599p ps=17.56u w=4.38u l=0.5u
X244 out op_out vdd vdd pfet_03v3 ad=5.163599p pd=17.56u as=6.322p ps=16.92u w=4.38u l=0.5u
X245 out op_out vdd vdd pfet_03v3 ad=5.163599p pd=17.56u as=6.322p ps=16.92u w=4.38u l=0.5u
X246 out op_out vdd vdd pfet_03v3 ad=5.163599p pd=17.56u as=6.322p ps=16.92u w=4.38u l=0.5u
X247 out op_out vdd vdd pfet_03v3 ad=5.163599p pd=17.56u as=6.322p ps=16.92u w=4.38u l=0.5u
X248 out op_out vdd vdd pfet_03v3 ad=6.322p pd=16.92u as=5.163599p ps=17.56u w=4.38u l=0.5u
X249 out op_out vdd vdd pfet_03v3 ad=3.8988p pd=13.77u as=4.814p ps=13.61u w=4.38u l=0.5u
X250 out op_out vdd vdd pfet_03v3 ad=5.163599p pd=17.56u as=6.322p ps=16.92u w=4.38u l=0.5u
X251 out op_out vdd vdd pfet_03v3 ad=5.163599p pd=17.56u as=6.322p ps=16.92u w=4.38u l=0.5u
X252 out op_out vdd vdd pfet_03v3 ad=6.322p pd=16.92u as=5.163599p ps=17.56u w=4.38u l=0.5u
X253 out op_out vdd vdd pfet_03v3 ad=6.322p pd=16.92u as=5.163599p ps=17.56u w=4.38u l=0.5u
X254 out op_out vdd vdd pfet_03v3 ad=6.322p pd=16.92u as=5.163599p ps=17.56u w=4.38u l=0.5u
X255 out op_out vdd vdd pfet_03v3 ad=3.8988p pd=13.77u as=6.322p ps=16.92u w=4.38u l=0.5u
X256 out op_out vdd vdd pfet_03v3 ad=5.163599p pd=17.56u as=6.322p ps=16.92u w=4.38u l=0.5u
X257 out op_out vdd vdd pfet_03v3 ad=5.163599p pd=17.56u as=6.322p ps=16.92u w=4.38u l=0.5u
X258 out op_out vdd vdd pfet_03v3 ad=6.322p pd=16.92u as=5.163599p ps=17.56u w=4.38u l=0.5u
X259 out op_out vdd vdd pfet_03v3 ad=5.163599p pd=17.56u as=6.322p ps=16.92u w=4.38u l=0.5u
X260 out op_out vdd vdd pfet_03v3 ad=4.814p pd=13.61u as=5.163599p ps=17.56u w=4.38u l=0.5u
X261 out op_out vdd vdd pfet_03v3 ad=5.163599p pd=17.56u as=6.322p ps=16.92u w=4.38u l=0.5u
X262 out op_out vdd vdd pfet_03v3 ad=5.163599p pd=17.56u as=6.322p ps=16.92u w=4.38u l=0.5u
X263 out op_out vdd vdd pfet_03v3 ad=5.163599p pd=17.56u as=6.322p ps=16.92u w=4.38u l=0.5u
X264 out op_out vdd vdd pfet_03v3 ad=5.163599p pd=17.56u as=6.322p ps=16.92u w=4.38u l=0.5u
X265 out op_out vdd vdd pfet_03v3 ad=5.163599p pd=17.56u as=6.322p ps=16.92u w=4.38u l=0.5u
X266 out op_out vdd vdd pfet_03v3 ad=5.163599p pd=17.56u as=6.322p ps=16.92u w=4.38u l=0.5u