* NGSPICE file created from TOP_CHILE_OPEN_LDO_clean.ext - technology: gf180mcuD

.subckt TOP_CHILE_OPEN_LDO_clean iref vin_p vss feedback ref out vdd
X0 vdd open_ldo_0.ota_0.vout out vdd pfet_03v3 ad=6.322p pd=16.92u as=5.163599p ps=17.56u w=4.38u l=0.5u
X1 vdd open_ldo_0.ota_0.vout out vdd pfet_03v3 ad=6.322p pd=16.92u as=5.163599p ps=17.56u w=4.38u l=0.5u
X2 vdd open_ldo_0.ota_0.vout out vdd pfet_03v3 ad=6.322p pd=16.92u as=5.163599p ps=17.56u w=4.38u l=0.5u
X3 vdd open_ldo_0.ota_0.vout out vdd pfet_03v3 ad=6.322p pd=16.92u as=5.163599p ps=17.56u w=4.38u l=0.5u
X4 vdd open_ldo_0.ota_0.vout out vdd pfet_03v3 ad=6.322p pd=16.92u as=5.163599p ps=17.56u w=4.38u l=0.5u
X5 vdd open_ldo_0.ota_0.vout out vdd pfet_03v3 ad=6.322p pd=16.92u as=5.163599p ps=17.56u w=4.38u l=0.5u
X6 out open_ldo_0.ota_0.vout vdd vdd pfet_03v3 ad=5.163599p pd=17.56u as=6.322p ps=16.92u w=4.38u l=0.5u
X7 out open_ldo_0.ota_0.vout vdd vdd pfet_03v3 ad=5.163599p pd=17.56u as=6.322p ps=16.92u w=4.38u l=0.5u
X8 vdd open_ldo_0.ota_0.vout out vdd pfet_03v3 ad=6.322p pd=16.92u as=5.163599p ps=17.56u w=4.38u l=0.5u
X9 vdd open_ldo_0.ota_0.vout out vdd pfet_03v3 ad=6.322p pd=16.92u as=5.163599p ps=17.56u w=4.38u l=0.5u
X10 vdd open_ldo_0.ota_0.vout out vdd pfet_03v3 ad=6.322p pd=16.92u as=3.8988p ps=13.77u w=4.38u l=0.5u
X11 out open_ldo_0.ota_0.vout vdd vdd pfet_03v3 ad=5.163599p pd=17.56u as=6.322p ps=16.92u w=4.38u l=0.5u
X12 vdd open_ldo_0.ota_0.vout out vdd pfet_03v3 ad=6.322p pd=16.92u as=5.163599p ps=17.56u w=4.38u l=0.5u
X13 vdd open_ldo_0.ota_0.vout out vdd pfet_03v3 ad=4.814p pd=13.61u as=3.8988p ps=13.77u w=4.38u l=0.5u
X14 vdd open_ldo_0.ota_0.vout out vdd pfet_03v3 ad=6.322p pd=16.92u as=5.163599p ps=17.56u w=4.38u l=0.5u
X15 vdd open_ldo_0.ota_0.vout out vdd pfet_03v3 ad=6.322p pd=16.92u as=5.163599p ps=17.56u w=4.38u l=0.5u
X16 out open_ldo_0.ota_0.vout vdd vdd pfet_03v3 ad=5.163599p pd=17.56u as=6.322p ps=16.92u w=4.38u l=0.5u
X17 vdd open_ldo_0.ota_0.vout out vdd pfet_03v3 ad=4.814p pd=13.61u as=3.8988p ps=13.77u w=4.38u l=0.5u
X18 vdd open_ldo_0.ota_0.vout out vdd pfet_03v3 ad=6.322p pd=16.92u as=5.163599p ps=17.56u w=4.38u l=0.5u
X19 vdd open_ldo_0.ota_0.vout out vdd pfet_03v3 ad=6.322p pd=16.92u as=5.163599p ps=17.56u w=4.38u l=0.5u
X20 out open_ldo_0.ota_0.vout vdd vdd pfet_03v3 ad=3.8988p pd=13.77u as=4.814p ps=13.61u w=4.38u l=0.5u
X21 out open_ldo_0.ota_0.vout vdd vdd pfet_03v3 ad=5.163599p pd=17.56u as=6.322p ps=16.92u w=4.38u l=0.5u
X22 vdd open_ldo_0.ota_0.vout out vdd pfet_03v3 ad=6.322p pd=16.92u as=5.163599p ps=17.56u w=4.38u l=0.5u
X23 vdd open_ldo_0.ota_0.vout out vdd pfet_03v3 ad=6.322p pd=16.92u as=5.163599p ps=17.56u w=4.38u l=0.5u
X24 vdd open_ldo_0.ota_0.vout out vdd pfet_03v3 ad=6.322p pd=16.92u as=5.163599p ps=17.56u w=4.38u l=0.5u
X25 out open_ldo_0.ota_0.vout vdd vdd pfet_03v3 ad=3.8988p pd=13.77u as=4.814p ps=13.61u w=4.38u l=0.5u
X26 out open_ldo_0.ota_0.vout vdd vdd pfet_03v3 ad=5.163599p pd=17.56u as=6.322p ps=16.92u w=4.38u l=0.5u
X27 vdd open_ldo_0.ota_0.vout out vdd pfet_03v3 ad=6.322p pd=16.92u as=5.163599p ps=17.56u w=4.38u l=0.5u
X28 vdd open_ldo_0.ota_0.vout out vdd pfet_03v3 ad=6.322p pd=16.92u as=5.163599p ps=17.56u w=4.38u l=0.5u
X29 out open_ldo_0.ota_0.vout vdd vdd pfet_03v3 ad=3.8988p pd=13.77u as=4.814p ps=13.61u w=4.38u l=0.5u
X30 vdd open_ldo_0.ota_0.vout out vdd pfet_03v3 ad=6.322p pd=16.92u as=5.163599p ps=17.56u w=4.38u l=0.5u
X31 vdd open_ldo_0.ota_0.vout out vdd pfet_03v3 ad=6.322p pd=16.92u as=5.163599p ps=17.56u w=4.38u l=0.5u
X32 vdd open_ldo_0.ota_0.vout out vdd pfet_03v3 ad=6.322p pd=16.92u as=5.163599p ps=17.56u w=4.38u l=0.5u
X33 vdd open_ldo_0.ota_0.vout out vdd pfet_03v3 ad=6.322p pd=16.92u as=5.163599p ps=17.56u w=4.38u l=0.5u
X34 vdd open_ldo_0.ota_0.vout out vdd pfet_03v3 ad=6.322p pd=16.92u as=5.163599p ps=17.56u w=4.38u l=0.5u
X35 vdd open_ldo_0.ota_0.vout out vdd pfet_03v3 ad=6.322p pd=16.92u as=5.163599p ps=17.56u w=4.38u l=0.5u
X36 out open_ldo_0.ota_0.vout vdd vdd pfet_03v3 ad=5.163599p pd=17.56u as=6.322p ps=16.92u w=4.38u l=0.5u
X37 vdd open_ldo_0.ota_0.vout out vdd pfet_03v3 ad=6.322p pd=16.92u as=5.163599p ps=17.56u w=4.38u l=0.5u
X38 vdd open_ldo_0.ota_0.vout out vdd pfet_03v3 ad=6.322p pd=16.92u as=5.163599p ps=17.56u w=4.38u l=0.5u
X39 vdd open_ldo_0.ota_0.vout out vdd pfet_03v3 ad=6.322p pd=16.92u as=5.163599p ps=17.56u w=4.38u l=0.5u
X40 vdd open_ldo_0.ota_0.vout out vdd pfet_03v3 ad=6.322p pd=16.92u as=5.163599p ps=17.56u w=4.38u l=0.5u
X41 vdd open_ldo_0.ota_0.vout out vdd pfet_03v3 ad=6.322p pd=16.92u as=5.163599p ps=17.56u w=4.38u l=0.5u
X42 vdd open_ldo_0.ota_0.vout out vdd pfet_03v3 ad=6.322p pd=16.92u as=5.163599p ps=17.56u w=4.38u l=0.5u
X43 vdd open_ldo_0.ota_0.vout out vdd pfet_03v3 ad=6.322p pd=16.92u as=5.163599p ps=17.56u w=4.38u l=0.5u
X44 out open_ldo_0.ota_0.vout vdd vdd pfet_03v3 ad=5.163599p pd=17.56u as=6.322p ps=16.92u w=4.38u l=0.5u
X45 vdd open_ldo_0.ota_0.vout out vdd pfet_03v3 ad=6.322p pd=16.92u as=5.163599p ps=17.56u w=4.38u l=0.5u
X46 out open_ldo_0.ota_0.vout vdd vdd pfet_03v3 ad=5.163599p pd=17.56u as=6.322p ps=16.92u w=4.38u l=0.5u
X47 out open_ldo_0.ota_0.vout vdd vdd pfet_03v3 ad=5.163599p pd=17.56u as=6.322p ps=16.92u w=4.38u l=0.5u
X48 vdd open_ldo_0.ota_0.vout out vdd pfet_03v3 ad=6.322p pd=16.92u as=5.163599p ps=17.56u w=4.38u l=0.5u
X49 vdd open_ldo_0.ota_0.vout out vdd pfet_03v3 ad=6.322p pd=16.92u as=5.163599p ps=17.56u w=4.38u l=0.5u
X50 vdd open_ldo_0.ota_0.vout out vdd pfet_03v3 ad=6.322p pd=16.92u as=5.163599p ps=17.56u w=4.38u l=0.5u
X51 a_313621_76595# a_315421_72467# vss ppolyf_u_1k r_width=1u r_length=20u
X52 vdd open_ldo_0.ota_0.vout out vdd pfet_03v3 ad=6.322p pd=16.92u as=5.163599p ps=17.56u w=4.38u l=0.5u
X53 out open_ldo_0.ota_0.vout vdd vdd pfet_03v3 ad=5.163599p pd=17.56u as=6.322p ps=16.92u w=4.38u l=0.5u
X54 out open_ldo_0.ota_0.vout vdd vdd pfet_03v3 ad=5.163599p pd=17.56u as=6.322p ps=16.92u w=4.38u l=0.5u
X55 out open_ldo_0.ota_0.vout vdd vdd pfet_03v3 ad=5.163599p pd=17.56u as=6.322p ps=16.92u w=4.38u l=0.5u
X56 out open_ldo_0.ota_0.vout vdd vdd pfet_03v3 ad=5.163599p pd=17.56u as=6.322p ps=16.92u w=4.38u l=0.5u
X57 out open_ldo_0.ota_0.vout vdd vdd pfet_03v3 ad=5.163599p pd=17.56u as=6.322p ps=16.92u w=4.38u l=0.5u
X58 out open_ldo_0.ota_0.vout vdd vdd pfet_03v3 ad=5.163599p pd=17.56u as=6.322p ps=16.92u w=4.38u l=0.5u
X59 out open_ldo_0.ota_0.vout vdd vdd pfet_03v3 ad=5.163599p pd=17.56u as=6.322p ps=16.92u w=4.38u l=0.5u
X60 out open_ldo_0.ota_0.vout vdd vdd pfet_03v3 ad=5.163599p pd=17.56u as=6.322p ps=16.92u w=4.38u l=0.5u
X61 vdd open_ldo_0.ota_0.vout out vdd pfet_03v3 ad=6.322p pd=16.92u as=5.163599p ps=17.56u w=4.38u l=0.5u
X62 vdd open_ldo_0.ota_0.vout out vdd pfet_03v3 ad=6.322p pd=16.92u as=5.163599p ps=17.56u w=4.38u l=0.5u
X63 out open_ldo_0.ota_0.vout vdd vdd pfet_03v3 ad=3.8988p pd=13.77u as=3.2335p ps=9.38u w=4.38u l=0.5u
X64 vdd open_ldo_0.ota_0.vout out vdd pfet_03v3 ad=6.322p pd=16.92u as=5.163599p ps=17.56u w=4.38u l=0.5u
X65 vdd open_ldo_0.ota_0.vout out vdd pfet_03v3 ad=6.322p pd=16.92u as=5.163599p ps=17.56u w=4.38u l=0.5u
X66 out open_ldo_0.ota_0.vout vdd vdd pfet_03v3 ad=5.163599p pd=17.56u as=6.322p ps=16.92u w=4.38u l=0.5u
X67 out open_ldo_0.ota_0.vout vdd vdd pfet_03v3 ad=5.163599p pd=17.56u as=6.322p ps=16.92u w=4.38u l=0.5u
X68 out open_ldo_0.ota_0.vout vdd vdd pfet_03v3 ad=5.163599p pd=17.56u as=6.322p ps=16.92u w=4.38u l=0.5u
X69 vss vss vss vss nfet_03v3 ad=0.65p pd=3.02u as=33.475p ps=0.14433m w=2.5u l=1u
X70 out open_ldo_0.ota_0.vout vdd vdd pfet_03v3 ad=5.163599p pd=17.56u as=6.322p ps=16.92u w=4.38u l=0.5u
X71 out open_ldo_0.ota_0.vout vdd vdd pfet_03v3 ad=5.163599p pd=17.56u as=6.322p ps=16.92u w=4.38u l=0.5u
X72 vdd open_ldo_0.ota_0.vout out vdd pfet_03v3 ad=6.322p pd=16.92u as=5.163599p ps=17.56u w=4.38u l=0.5u
X73 vdd open_ldo_0.ota_0.vout out vdd pfet_03v3 ad=6.322p pd=16.92u as=5.163599p ps=17.56u w=4.38u l=0.5u
X74 vdd open_ldo_0.ota_0.vout out vdd pfet_03v3 ad=6.322p pd=16.92u as=5.163599p ps=17.56u w=4.38u l=0.5u
X75 vdd open_ldo_0.ota_0.vout out vdd pfet_03v3 ad=6.322p pd=16.92u as=5.163599p ps=17.56u w=4.38u l=0.5u
X76 out open_ldo_0.ota_0.vout vdd vdd pfet_03v3 ad=5.163599p pd=17.56u as=6.322p ps=16.92u w=4.38u l=0.5u
X77 out open_ldo_0.ota_0.vout vdd vdd pfet_03v3 ad=5.163599p pd=17.56u as=6.322p ps=16.92u w=4.38u l=0.5u
X78 out open_ldo_0.ota_0.vout vdd vdd pfet_03v3 ad=5.163599p pd=17.56u as=6.322p ps=16.92u w=4.38u l=0.5u
X79 out open_ldo_0.ota_0.vout vdd vdd pfet_03v3 ad=5.163599p pd=17.56u as=6.322p ps=16.92u w=4.38u l=0.5u
X80 out open_ldo_0.ota_0.vout vdd vdd pfet_03v3 ad=5.163599p pd=17.56u as=6.322p ps=16.92u w=4.38u l=0.5u
X81 out open_ldo_0.ota_0.vout vdd vdd pfet_03v3 ad=5.163599p pd=17.56u as=6.322p ps=16.92u w=4.38u l=0.5u
X82 vdd open_ldo_0.ota_0.vout out vdd pfet_03v3 ad=6.322p pd=16.92u as=5.163599p ps=17.56u w=4.38u l=0.5u
X83 out open_ldo_0.ota_0.vout vdd vdd pfet_03v3 ad=5.163599p pd=17.56u as=6.322p ps=16.92u w=4.38u l=0.5u
X84 out open_ldo_0.ota_0.vout vdd vdd pfet_03v3 ad=5.163599p pd=17.56u as=6.322p ps=16.92u w=4.38u l=0.5u
X85 out open_ldo_0.ota_0.vout vdd vdd pfet_03v3 ad=5.163599p pd=17.56u as=6.322p ps=16.92u w=4.38u l=0.5u
X86 out open_ldo_0.ota_0.vout vdd vdd pfet_03v3 ad=5.163599p pd=17.56u as=6.322p ps=16.92u w=4.38u l=0.5u
X87 out open_ldo_0.ota_0.vout vdd vdd pfet_03v3 ad=5.163599p pd=17.56u as=6.322p ps=16.92u w=4.38u l=0.5u
X88 out open_ldo_0.ota_0.vout vdd vdd pfet_03v3 ad=5.163599p pd=17.56u as=6.322p ps=16.92u w=4.38u l=0.5u
X89 out open_ldo_0.ota_0.vout vdd vdd pfet_03v3 ad=5.163599p pd=17.56u as=6.322p ps=16.92u w=4.38u l=0.5u
X90 vdd open_ldo_0.ota_0.vout out vdd pfet_03v3 ad=6.322p pd=16.92u as=5.163599p ps=17.56u w=4.38u l=0.5u
X91 out open_ldo_0.ota_0.vout vdd vdd pfet_03v3 ad=5.163599p pd=17.56u as=6.322p ps=16.92u w=4.38u l=0.5u
X92 out open_ldo_0.ota_0.vout vdd vdd pfet_03v3 ad=5.163599p pd=17.56u as=6.322p ps=16.92u w=4.38u l=0.5u
X93 out open_ldo_0.ota_0.vout vdd vdd pfet_03v3 ad=5.163599p pd=17.56u as=6.322p ps=16.92u w=4.38u l=0.5u
X94 vdd open_ldo_0.ota_0.vout out vdd pfet_03v3 ad=6.322p pd=16.92u as=5.163599p ps=17.56u w=4.38u l=0.5u
X95 out open_ldo_0.ota_0.vout vdd vdd pfet_03v3 ad=5.163599p pd=17.56u as=6.322p ps=16.92u w=4.38u l=0.5u
X96 vdd open_ldo_0.ota_0.vout out vdd pfet_03v3 ad=6.322p pd=16.92u as=5.163599p ps=17.56u w=4.38u l=0.5u
X97 out open_ldo_0.ota_0.vout vdd vdd pfet_03v3 ad=5.163599p pd=17.56u as=6.322p ps=16.92u w=4.38u l=0.5u
X98 vdd open_ldo_0.ota_0.vout out vdd pfet_03v3 ad=6.322p pd=16.92u as=5.163599p ps=17.56u w=4.38u l=0.5u
X99 out open_ldo_0.ota_0.vout vdd vdd pfet_03v3 ad=5.163599p pd=17.56u as=6.322p ps=16.92u w=4.38u l=0.5u
X100 out open_ldo_0.ota_0.vout vdd vdd pfet_03v3 ad=5.163599p pd=17.56u as=4.814p ps=13.61u w=4.38u l=0.5u
X101 vdd open_ldo_0.ota_0.vout out vdd pfet_03v3 ad=6.322p pd=16.92u as=5.163599p ps=17.56u w=4.38u l=0.5u
X102 out open_ldo_0.ota_0.vout vdd vdd pfet_03v3 ad=5.163599p pd=17.56u as=6.322p ps=16.92u w=4.38u l=0.5u
X103 a_325921_73601# vss vss vss nfet_03v3 ad=1.3p pd=5.52u as=3.075p ps=11.23u w=5u l=1u
X104 vdd open_ldo_0.ota_0.vout out vdd pfet_03v3 ad=6.322p pd=16.92u as=5.163599p ps=17.56u w=4.38u l=0.5u
X105 vdd open_ldo_0.ota_0.vout out vdd pfet_03v3 ad=6.322p pd=16.92u as=5.163599p ps=17.56u w=4.38u l=0.5u
X106 vdd open_ldo_0.ota_0.vout out vdd pfet_03v3 ad=6.322p pd=16.92u as=5.163599p ps=17.56u w=4.38u l=0.5u
X107 out open_ldo_0.ota_0.vout vdd vdd pfet_03v3 ad=3.8988p pd=13.77u as=4.814p ps=13.61u w=4.38u l=0.5u
X108 out open_ldo_0.ota_0.vout vdd vdd pfet_03v3 ad=5.163599p pd=17.56u as=6.322p ps=16.92u w=4.38u l=0.5u
X109 out open_ldo_0.ota_0.vout vdd vdd pfet_03v3 ad=5.163599p pd=17.56u as=6.322p ps=16.92u w=4.38u l=0.5u
X110 vdd open_ldo_0.ota_0.vout out vdd pfet_03v3 ad=6.322p pd=16.92u as=5.163599p ps=17.56u w=4.38u l=0.5u
X111 out open_ldo_0.ota_0.vout vdd vdd pfet_03v3 ad=5.163599p pd=17.56u as=6.322p ps=16.92u w=4.38u l=0.5u
X112 out open_ldo_0.ota_0.vout vdd vdd pfet_03v3 ad=5.163599p pd=17.56u as=6.322p ps=16.92u w=4.38u l=0.5u
X113 out open_ldo_0.ota_0.vout vdd vdd pfet_03v3 ad=5.163599p pd=17.56u as=6.322p ps=16.92u w=4.38u l=0.5u
X114 out open_ldo_0.ota_0.vout vdd vdd pfet_03v3 ad=5.163599p pd=17.56u as=6.322p ps=16.92u w=4.38u l=0.5u
X115 vdd open_ldo_0.ota_0.vout out vdd pfet_03v3 ad=6.322p pd=16.92u as=5.163599p ps=17.56u w=4.38u l=0.5u
X116 out open_ldo_0.ota_0.vout vdd vdd pfet_03v3 ad=5.163599p pd=17.56u as=6.322p ps=16.92u w=4.38u l=0.5u
X117 out open_ldo_0.ota_0.vout vdd vdd pfet_03v3 ad=5.163599p pd=17.56u as=6.322p ps=16.92u w=4.38u l=0.5u
X118 out open_ldo_0.ota_0.vout vdd vdd pfet_03v3 ad=5.163599p pd=17.56u as=6.322p ps=16.92u w=4.38u l=0.5u
X119 out open_ldo_0.ota_0.vout vdd vdd pfet_03v3 ad=5.163599p pd=17.56u as=6.322p ps=16.92u w=4.38u l=0.5u
X120 vdd open_ldo_0.ota_0.vout out vdd pfet_03v3 ad=6.322p pd=16.92u as=5.163599p ps=17.56u w=4.38u l=0.5u
X121 vdd open_ldo_0.ota_0.vout out vdd pfet_03v3 ad=6.322p pd=16.92u as=5.163599p ps=17.56u w=4.38u l=0.5u
X122 vdd open_ldo_0.ota_0.vout out vdd pfet_03v3 ad=6.322p pd=16.92u as=5.163599p ps=17.56u w=4.38u l=0.5u
X123 out open_ldo_0.ota_0.vout vdd vdd pfet_03v3 ad=5.163599p pd=17.56u as=6.322p ps=16.92u w=4.38u l=0.5u
X124 vdd open_ldo_0.ota_0.vout out vdd pfet_03v3 ad=6.322p pd=16.92u as=5.163599p ps=17.56u w=4.38u l=0.5u
X125 out open_ldo_0.ota_0.vout vdd vdd pfet_03v3 ad=5.163599p pd=17.56u as=6.322p ps=16.92u w=4.38u l=0.5u
X126 vdd open_ldo_0.ota_0.vout out vdd pfet_03v3 ad=6.322p pd=16.92u as=5.163599p ps=17.56u w=4.38u l=0.5u
X127 vdd open_ldo_0.ota_0.vout out vdd pfet_03v3 ad=6.322p pd=16.92u as=5.163599p ps=17.56u w=4.38u l=0.5u
X128 vdd open_ldo_0.ota_0.vout out vdd pfet_03v3 ad=6.322p pd=16.92u as=5.163599p ps=17.56u w=4.38u l=0.5u
X129 vdd open_ldo_0.ota_0.vout out vdd pfet_03v3 ad=6.322p pd=16.92u as=5.163599p ps=17.56u w=4.38u l=0.5u
X130 vss iref open_ldo_0.ota_0.vout vss nfet_03v3 ad=0.65p pd=3.02u as=0.65p ps=3.02u w=2.5u l=1u
X131 vdd vdd vdd vdd pfet_03v3 ad=6.5p pd=25.519999u as=6.366214n ps=0.01721 w=25u l=1u
X132 out open_ldo_0.ota_0.vout vdd vdd pfet_03v3 ad=5.163599p pd=17.56u as=6.322p ps=16.92u w=4.38u l=0.5u
X133 out open_ldo_0.ota_0.vout vdd vdd pfet_03v3 ad=5.163599p pd=17.56u as=6.322p ps=16.92u w=4.38u l=0.5u
X134 vdd open_ldo_0.ota_0.vout out vdd pfet_03v3 ad=6.322p pd=16.92u as=5.163599p ps=17.56u w=4.38u l=0.5u
X135 vdd open_ldo_0.ota_0.vout out vdd pfet_03v3 ad=6.322p pd=16.92u as=5.163599p ps=17.56u w=4.38u l=0.5u
X136 out open_ldo_0.ota_0.vout vdd vdd pfet_03v3 ad=5.163599p pd=17.56u as=6.322p ps=16.92u w=4.38u l=0.5u
X137 out open_ldo_0.ota_0.vout vdd vdd pfet_03v3 ad=5.163599p pd=17.56u as=6.322p ps=16.92u w=4.38u l=0.5u
X138 vdd open_ldo_0.ota_0.vout out vdd pfet_03v3 ad=6.322p pd=16.92u as=5.163599p ps=17.56u w=4.38u l=0.5u
X139 vdd open_ldo_0.ota_0.vout out vdd pfet_03v3 ad=6.322p pd=16.92u as=5.163599p ps=17.56u w=4.38u l=0.5u
X140 vdd open_ldo_0.ota_0.vout out vdd pfet_03v3 ad=6.322p pd=16.92u as=5.163599p ps=17.56u w=4.38u l=0.5u
X141 vdd open_ldo_0.ota_0.vout out vdd pfet_03v3 ad=6.322p pd=16.92u as=5.163599p ps=17.56u w=4.38u l=0.5u
X142 vdd open_ldo_0.ota_0.vout out vdd pfet_03v3 ad=6.322p pd=16.92u as=5.163599p ps=17.56u w=4.38u l=0.5u
X143 vdd open_ldo_0.ota_0.vout out vdd pfet_03v3 ad=6.322p pd=16.92u as=5.163599p ps=17.56u w=4.38u l=0.5u
X144 out open_ldo_0.ota_0.vout vdd vdd pfet_03v3 ad=5.163599p pd=17.56u as=6.322p ps=16.92u w=4.38u l=0.5u
X145 vdd open_ldo_0.ota_0.vout out vdd pfet_03v3 ad=6.322p pd=16.92u as=5.163599p ps=17.56u w=4.38u l=0.5u
X146 vdd open_ldo_0.ota_0.vout out vdd pfet_03v3 ad=6.322p pd=16.92u as=5.163599p ps=17.56u w=4.38u l=0.5u
X147 vdd open_ldo_0.ota_0.vout out vdd pfet_03v3 ad=6.322p pd=16.92u as=5.163599p ps=17.56u w=4.38u l=0.5u
X148 vdd open_ldo_0.ota_0.vout out vdd pfet_03v3 ad=6.322p pd=16.92u as=5.163599p ps=17.56u w=4.38u l=0.5u
X149 vdd open_ldo_0.ota_0.vout out vdd pfet_03v3 ad=6.322p pd=16.92u as=5.163599p ps=17.56u w=4.38u l=0.5u
X150 vdd open_ldo_0.ota_0.vout out vdd pfet_03v3 ad=6.322p pd=16.92u as=5.163599p ps=17.56u w=4.38u l=0.5u
X151 vdd open_ldo_0.ota_0.vout out vdd pfet_03v3 ad=6.322p pd=16.92u as=5.163599p ps=17.56u w=4.38u l=0.5u
X152 out open_ldo_0.ota_0.vout vdd vdd pfet_03v3 ad=3.8988p pd=13.77u as=6.322p ps=16.92u w=4.38u l=0.5u
X153 vdd open_ldo_0.ota_0.vout out vdd pfet_03v3 ad=6.322p pd=16.92u as=5.163599p ps=17.56u w=4.38u l=0.5u
X154 vdd open_ldo_0.ota_0.vout out vdd pfet_03v3 ad=6.322p pd=16.92u as=5.163599p ps=17.56u w=4.38u l=0.5u
X155 out open_ldo_0.ota_0.vout vdd vdd pfet_03v3 ad=5.163599p pd=17.56u as=6.322p ps=16.92u w=4.38u l=0.5u
X156 out open_ldo_0.ota_0.vout vdd vdd pfet_03v3 ad=5.163599p pd=17.56u as=6.322p ps=16.92u w=4.38u l=0.5u
X157 out open_ldo_0.ota_0.vout vdd vdd pfet_03v3 ad=5.163599p pd=17.56u as=6.322p ps=16.92u w=4.38u l=0.5u
X158 vdd open_ldo_0.ota_0.vout out vdd pfet_03v3 ad=6.322p pd=16.92u as=5.163599p ps=17.56u w=4.38u l=0.5u
X159 vdd open_ldo_0.ota_0.vout out vdd pfet_03v3 ad=6.322p pd=16.92u as=5.163599p ps=17.56u w=4.38u l=0.5u
X160 out open_ldo_0.ota_0.vout vdd vdd pfet_03v3 ad=5.163599p pd=17.56u as=6.322p ps=16.92u w=4.38u l=0.5u
X161 vdd open_ldo_0.ota_0.vout out vdd pfet_03v3 ad=6.322p pd=16.92u as=5.163599p ps=17.56u w=4.38u l=0.5u
X162 vdd open_ldo_0.ota_0.vout out vdd pfet_03v3 ad=6.322p pd=16.92u as=5.163599p ps=17.56u w=4.38u l=0.5u
X163 vdd open_ldo_0.ota_0.vout out vdd pfet_03v3 ad=4.814p pd=13.61u as=3.8988p ps=13.77u w=4.38u l=0.5u
X164 out open_ldo_0.ota_0.vout vdd vdd pfet_03v3 ad=5.163599p pd=17.56u as=6.322p ps=16.92u w=4.38u l=0.5u
X165 vdd open_ldo_0.ota_0.vout out vdd pfet_03v3 ad=6.322p pd=16.92u as=5.163599p ps=17.56u w=4.38u l=0.5u
X166 vss vss vss vss nfet_03v3 ad=0.65p pd=3.02u as=0 ps=0 w=2.5u l=1u
X167 out open_ldo_0.ota_0.vout vdd vdd pfet_03v3 ad=5.163599p pd=17.56u as=6.322p ps=16.92u w=4.38u l=0.5u
X168 vdd open_ldo_0.ota_0.vout out vdd pfet_03v3 ad=6.322p pd=16.92u as=5.163599p ps=17.56u w=4.38u l=0.5u
X169 out open_ldo_0.ota_0.vout vdd vdd pfet_03v3 ad=5.163599p pd=17.56u as=6.322p ps=16.92u w=4.38u l=0.5u
X170 vdd open_ldo_0.ota_0.vout out vdd pfet_03v3 ad=6.322p pd=16.92u as=5.163599p ps=17.56u w=4.38u l=0.5u
X171 out open_ldo_0.ota_0.vout vdd vdd pfet_03v3 ad=5.163599p pd=17.56u as=6.322p ps=16.92u w=4.38u l=0.5u
X172 out open_ldo_0.ota_0.vout vdd vdd pfet_03v3 ad=5.163599p pd=17.56u as=6.322p ps=16.92u w=4.38u l=0.5u
X173 vdd open_ldo_0.ota_0.vout out vdd pfet_03v3 ad=6.322p pd=16.92u as=3.8988p ps=13.77u w=4.38u l=0.5u
X174 vdd open_ldo_0.ota_0.vout out vdd pfet_03v3 ad=6.322p pd=16.92u as=5.163599p ps=17.56u w=4.38u l=0.5u
X175 vdd open_ldo_0.ota_0.vout out vdd pfet_03v3 ad=6.322p pd=16.92u as=5.163599p ps=17.56u w=4.38u l=0.5u
X176 vdd open_ldo_0.ota_0.vout out vdd pfet_03v3 ad=6.322p pd=16.92u as=5.163599p ps=17.56u w=4.38u l=0.5u
X177 vdd open_ldo_0.ota_0.vout out vdd pfet_03v3 ad=6.322p pd=16.92u as=3.8988p ps=13.77u w=4.38u l=0.5u
X178 vdd open_ldo_0.ota_0.vout out vdd pfet_03v3 ad=6.322p pd=16.92u as=5.163599p ps=17.56u w=4.38u l=0.5u
X179 out open_ldo_0.ota_0.vout vdd vdd pfet_03v3 ad=5.163599p pd=17.56u as=6.322p ps=16.92u w=4.38u l=0.5u
X180 out open_ldo_0.ota_0.vout vdd vdd pfet_03v3 ad=5.163599p pd=17.56u as=6.322p ps=16.92u w=4.38u l=0.5u
X181 a_311821_76595# a_312421_72467# vss ppolyf_u_1k r_width=1u r_length=20u
X182 vdd open_ldo_0.ota_0.vout out vdd pfet_03v3 ad=6.322p pd=16.92u as=5.163599p ps=17.56u w=4.38u l=0.5u
X183 vdd open_ldo_0.ota_0.vout out vdd pfet_03v3 ad=6.322p pd=16.92u as=5.163599p ps=17.56u w=4.38u l=0.5u
X184 out open_ldo_0.ota_0.vout vdd vdd pfet_03v3 ad=5.163599p pd=17.56u as=6.322p ps=16.92u w=4.38u l=0.5u
X185 out open_ldo_0.ota_0.vout vdd vdd pfet_03v3 ad=5.163599p pd=17.56u as=6.322p ps=16.92u w=4.38u l=0.5u
X186 out open_ldo_0.ota_0.vout vdd vdd pfet_03v3 ad=5.163599p pd=17.56u as=6.322p ps=16.92u w=4.38u l=0.5u
X187 out open_ldo_0.ota_0.vout vdd vdd pfet_03v3 ad=5.163599p pd=17.56u as=6.322p ps=16.92u w=4.38u l=0.5u
X188 vdd open_ldo_0.ota_0.vout out vdd pfet_03v3 ad=6.322p pd=16.92u as=5.163599p ps=17.56u w=4.38u l=0.5u
X189 out open_ldo_0.ota_0.vout vdd vdd pfet_03v3 ad=5.163599p pd=17.56u as=6.322p ps=16.92u w=4.38u l=0.5u
X190 out open_ldo_0.ota_0.vout vdd vdd pfet_03v3 ad=5.163599p pd=17.56u as=4.814p ps=13.61u w=4.38u l=0.5u
X191 vdd open_ldo_0.ota_0.vout out vdd pfet_03v3 ad=4.814p pd=13.61u as=5.163599p ps=17.56u w=4.38u l=0.5u
X192 out open_ldo_0.ota_0.vout vdd vdd pfet_03v3 ad=5.163599p pd=17.56u as=6.322p ps=16.92u w=4.38u l=0.5u
X193 vdd open_ldo_0.ota_0.vout out vdd pfet_03v3 ad=3.2335p pd=9.38u as=3.8988p ps=13.77u w=4.38u l=0.5u
X194 vdd open_ldo_0.ota_0.vout out vdd pfet_03v3 ad=6.322p pd=16.92u as=5.163599p ps=17.56u w=4.38u l=0.5u
X195 vdd open_ldo_0.ota_0.vout out vdd pfet_03v3 ad=6.322p pd=16.92u as=5.163599p ps=17.56u w=4.38u l=0.5u
X196 out open_ldo_0.ota_0.vout vdd vdd pfet_03v3 ad=5.163599p pd=17.56u as=6.322p ps=16.92u w=4.38u l=0.5u
X197 vdd open_ldo_0.ota_0.vout out vdd pfet_03v3 ad=4.814p pd=13.61u as=3.8988p ps=13.77u w=4.38u l=0.5u
X198 out open_ldo_0.ota_0.vout vdd vdd pfet_03v3 ad=5.163599p pd=17.56u as=6.322p ps=16.92u w=4.38u l=0.5u
X199 out open_ldo_0.ota_0.vout vdd vdd pfet_03v3 ad=5.163599p pd=17.56u as=6.322p ps=16.92u w=4.38u l=0.5u
X200 out open_ldo_0.ota_0.vout vdd vdd pfet_03v3 ad=5.163599p pd=17.56u as=6.322p ps=16.92u w=4.38u l=0.5u
X201 vdd open_ldo_0.ota_0.vout out vdd pfet_03v3 ad=4.814p pd=13.61u as=5.163599p ps=17.56u w=4.38u l=0.5u
X202 out open_ldo_0.ota_0.vout vdd vdd pfet_03v3 ad=5.163599p pd=17.56u as=6.322p ps=16.92u w=4.38u l=0.5u
X203 out open_ldo_0.ota_0.vout vdd vdd pfet_03v3 ad=5.163599p pd=17.56u as=6.322p ps=16.92u w=4.38u l=0.5u
X204 vdd open_ldo_0.ota_0.vout out vdd pfet_03v3 ad=6.322p pd=16.92u as=5.163599p ps=17.56u w=4.38u l=0.5u
X205 vdd open_ldo_0.ota_0.vout out vdd pfet_03v3 ad=6.322p pd=16.92u as=5.163599p ps=17.56u w=4.38u l=0.5u
X206 vdd open_ldo_0.ota_0.vout out vdd pfet_03v3 ad=6.322p pd=16.92u as=5.163599p ps=17.56u w=4.38u l=0.5u
X207 vdd open_ldo_0.ota_0.vout out vdd pfet_03v3 ad=6.322p pd=16.92u as=3.8988p ps=13.77u w=4.38u l=0.5u
X208 vdd open_ldo_0.ota_0.vout out vdd pfet_03v3 ad=6.322p pd=16.92u as=5.163599p ps=17.56u w=4.38u l=0.5u
X209 out open_ldo_0.ota_0.vout vdd vdd pfet_03v3 ad=3.8988p pd=13.77u as=6.322p ps=16.92u w=4.38u l=0.5u
X210 vdd open_ldo_0.ota_0.vout out vdd pfet_03v3 ad=4.814p pd=13.61u as=2.6079p ps=9.38u w=4.38u l=0.5u
X211 vdd open_ldo_0.ota_0.vout out vdd pfet_03v3 ad=6.322p pd=16.92u as=5.163599p ps=17.56u w=4.38u l=0.5u
X212 out open_ldo_0.ota_0.vout vdd vdd pfet_03v3 ad=3.8988p pd=13.77u as=4.814p ps=13.61u w=4.38u l=0.5u
X213 vdd open_ldo_0.ota_0.vout out vdd pfet_03v3 ad=6.322p pd=16.92u as=5.163599p ps=17.56u w=4.38u l=0.5u
X214 out open_ldo_0.ota_0.vout vdd vdd pfet_03v3 ad=5.163599p pd=17.56u as=6.322p ps=16.92u w=4.38u l=0.5u
X215 out open_ldo_0.ota_0.vout vdd vdd pfet_03v3 ad=5.163599p pd=17.56u as=6.322p ps=16.92u w=4.38u l=0.5u
X216 out open_ldo_0.ota_0.vout vdd vdd pfet_03v3 ad=5.163599p pd=17.56u as=6.322p ps=16.92u w=4.38u l=0.5u
X217 vdd open_ldo_0.ota_0.vout out vdd pfet_03v3 ad=6.322p pd=16.92u as=5.163599p ps=17.56u w=4.38u l=0.5u
X218 out open_ldo_0.ota_0.vout vdd vdd pfet_03v3 ad=5.163599p pd=17.56u as=6.322p ps=16.92u w=4.38u l=0.5u
X219 out open_ldo_0.ota_0.vout vdd vdd pfet_03v3 ad=3.8988p pd=13.77u as=4.814p ps=13.61u w=4.38u l=0.5u
X220 out open_ldo_0.ota_0.vout vdd vdd pfet_03v3 ad=5.163599p pd=17.56u as=6.322p ps=16.92u w=4.38u l=0.5u
X221 vdd open_ldo_0.ota_0.vout out vdd pfet_03v3 ad=6.322p pd=16.92u as=5.163599p ps=17.56u w=4.38u l=0.5u
X222 vdd open_ldo_0.ota_0.vout out vdd pfet_03v3 ad=6.322p pd=16.92u as=5.163599p ps=17.56u w=4.38u l=0.5u
X223 vdd open_ldo_0.ota_0.vout out vdd pfet_03v3 ad=6.322p pd=16.92u as=5.163599p ps=17.56u w=4.38u l=0.5u
X224 out open_ldo_0.ota_0.vout vdd vdd pfet_03v3 ad=5.163599p pd=17.56u as=6.322p ps=16.92u w=4.38u l=0.5u
X225 out open_ldo_0.ota_0.vout vdd vdd pfet_03v3 ad=2.6079p pd=9.38u as=4.814p ps=13.61u w=4.38u l=0.5u
X226 out open_ldo_0.ota_0.vout vdd vdd pfet_03v3 ad=5.163599p pd=17.56u as=6.322p ps=16.92u w=4.38u l=0.5u
X227 vdd open_ldo_0.ota_0.vout out vdd pfet_03v3 ad=4.814p pd=13.61u as=3.8988p ps=13.77u w=4.38u l=0.5u
X228 vdd open_ldo_0.ota_0.vout out vdd pfet_03v3 ad=6.322p pd=16.92u as=5.163599p ps=17.56u w=4.38u l=0.5u
X229 vdd open_ldo_0.ota_0.vout out vdd pfet_03v3 ad=6.322p pd=16.92u as=5.163599p ps=17.56u w=4.38u l=0.5u
X230 out open_ldo_0.ota_0.vout vdd vdd pfet_03v3 ad=3.8988p pd=13.77u as=6.322p ps=16.92u w=4.38u l=0.5u
X231 vdd open_ldo_0.ota_0.vout out vdd pfet_03v3 ad=6.322p pd=16.92u as=5.163599p ps=17.56u w=4.38u l=0.5u
X232 out open_ldo_0.ota_0.vout vdd vdd pfet_03v3 ad=5.163599p pd=17.56u as=6.322p ps=16.92u w=4.38u l=0.5u
X233 vdd open_ldo_0.ota_0.vout out vdd pfet_03v3 ad=4.814p pd=13.61u as=2.6079p ps=9.38u w=4.38u l=0.5u
X234 out open_ldo_0.ota_0.vout vdd vdd pfet_03v3 ad=5.163599p pd=17.56u as=6.322p ps=16.92u w=4.38u l=0.5u
X235 out open_ldo_0.ota_0.vout vdd vdd pfet_03v3 ad=5.163599p pd=17.56u as=6.322p ps=16.92u w=4.38u l=0.5u
X236 vdd open_ldo_0.ota_0.vout out vdd pfet_03v3 ad=6.322p pd=16.92u as=5.163599p ps=17.56u w=4.38u l=0.5u
X237 out open_ldo_0.ota_0.vout vdd vdd pfet_03v3 ad=5.163599p pd=17.56u as=6.322p ps=16.92u w=4.38u l=0.5u
X238 out open_ldo_0.ota_0.vout vdd vdd pfet_03v3 ad=5.163599p pd=17.56u as=6.322p ps=16.92u w=4.38u l=0.5u
X239 out open_ldo_0.ota_0.vout vdd vdd pfet_03v3 ad=3.8988p pd=13.77u as=4.814p ps=13.61u w=4.38u l=0.5u
X240 out open_ldo_0.ota_0.vout vdd vdd pfet_03v3 ad=5.163599p pd=17.56u as=6.322p ps=16.92u w=4.38u l=0.5u
X241 out open_ldo_0.ota_0.vout vdd vdd pfet_03v3 ad=5.163599p pd=17.56u as=6.322p ps=16.92u w=4.38u l=0.5u
X242 out open_ldo_0.ota_0.vout vdd vdd pfet_03v3 ad=5.163599p pd=17.56u as=6.322p ps=16.92u w=4.38u l=0.5u
X243 vdd open_ldo_0.ota_0.vout out vdd pfet_03v3 ad=6.322p pd=16.92u as=5.163599p ps=17.56u w=4.38u l=0.5u
X244 out open_ldo_0.ota_0.vout vdd vdd pfet_03v3 ad=5.163599p pd=17.56u as=6.322p ps=16.92u w=4.38u l=0.5u
X245 out open_ldo_0.ota_0.vout vdd vdd pfet_03v3 ad=5.163599p pd=17.56u as=6.322p ps=16.92u w=4.38u l=0.5u
X246 out open_ldo_0.ota_0.vout vdd vdd pfet_03v3 ad=5.163599p pd=17.56u as=6.322p ps=16.92u w=4.38u l=0.5u
X247 out open_ldo_0.ota_0.vout vdd vdd pfet_03v3 ad=5.163599p pd=17.56u as=6.322p ps=16.92u w=4.38u l=0.5u
X248 vdd open_ldo_0.ota_0.vout out vdd pfet_03v3 ad=6.322p pd=16.92u as=5.163599p ps=17.56u w=4.38u l=0.5u
X249 out open_ldo_0.ota_0.vout vdd vdd pfet_03v3 ad=3.8988p pd=13.77u as=4.814p ps=13.61u w=4.38u l=0.5u
X250 out open_ldo_0.ota_0.vout vdd vdd pfet_03v3 ad=5.163599p pd=17.56u as=6.322p ps=16.92u w=4.38u l=0.5u
X251 out open_ldo_0.ota_0.vout vdd vdd pfet_03v3 ad=5.163599p pd=17.56u as=6.322p ps=16.92u w=4.38u l=0.5u
X252 vdd open_ldo_0.ota_0.vout out vdd pfet_03v3 ad=6.322p pd=16.92u as=5.163599p ps=17.56u w=4.38u l=0.5u
X253 vdd open_ldo_0.ota_0.vout out vdd pfet_03v3 ad=6.322p pd=16.92u as=5.163599p ps=17.56u w=4.38u l=0.5u
X254 vdd open_ldo_0.ota_0.vout out vdd pfet_03v3 ad=6.322p pd=16.92u as=5.163599p ps=17.56u w=4.38u l=0.5u
X255 out open_ldo_0.ota_0.vout vdd vdd pfet_03v3 ad=3.8988p pd=13.77u as=6.322p ps=16.92u w=4.38u l=0.5u
X256 out open_ldo_0.ota_0.vout vdd vdd pfet_03v3 ad=5.163599p pd=17.56u as=6.322p ps=16.92u w=4.38u l=0.5u
X257 out open_ldo_0.ota_0.vout vdd vdd pfet_03v3 ad=5.163599p pd=17.56u as=6.322p ps=16.92u w=4.38u l=0.5u
X258 vdd open_ldo_0.ota_0.vout out vdd pfet_03v3 ad=6.322p pd=16.92u as=5.163599p ps=17.56u w=4.38u l=0.5u
X259 out open_ldo_0.ota_0.vout vdd vdd pfet_03v3 ad=5.163599p pd=17.56u as=6.322p ps=16.92u w=4.38u l=0.5u
X260 vdd open_ldo_0.ota_0.vout out vdd pfet_03v3 ad=4.814p pd=13.61u as=5.163599p ps=17.56u w=4.38u l=0.5u
X261 out open_ldo_0.ota_0.vout vdd vdd pfet_03v3 ad=5.163599p pd=17.56u as=6.322p ps=16.92u w=4.38u l=0.5u
X262 out open_ldo_0.ota_0.vout vdd vdd pfet_03v3 ad=5.163599p pd=17.56u as=6.322p ps=16.92u w=4.38u l=0.5u
X263 out open_ldo_0.ota_0.vout vdd vdd pfet_03v3 ad=5.163599p pd=17.56u as=6.322p ps=16.92u w=4.38u l=0.5u
X264 out open_ldo_0.ota_0.vout vdd vdd pfet_03v3 ad=5.163599p pd=17.56u as=6.322p ps=16.92u w=4.38u l=0.5u
X265 out open_ldo_0.ota_0.vout vdd vdd pfet_03v3 ad=5.163599p pd=17.56u as=6.322p ps=16.92u w=4.38u l=0.5u
X266 out open_ldo_0.ota_0.vout vdd vdd pfet_03v3 ad=5.163599p pd=17.56u as=6.322p ps=16.92u w=4.38u l=0.5u
X267 out open_ldo_0.ota_0.vout vdd vdd pfet_03v3 ad=5.163599p pd=17.56u as=6.322p ps=16.92u w=4.38u l=0.5u
X268 out open_ldo_0.ota_0.vout vdd vdd pfet_03v3 ad=5.163599p pd=17.56u as=6.322p ps=16.92u w=4.38u l=0.5u
X269 vdd open_ldo_0.ota_0.vout out vdd pfet_03v3 ad=6.322p pd=16.92u as=5.163599p ps=17.56u w=4.38u l=0.5u
X270 vdd open_ldo_0.ota_0.vout out vdd pfet_03v3 ad=6.322p pd=16.92u as=5.163599p ps=17.56u w=4.38u l=0.5u
X271 vdd open_ldo_0.ota_0.vout out vdd pfet_03v3 ad=4.814p pd=13.61u as=3.8988p ps=13.77u w=4.38u l=0.5u
X272 out open_ldo_0.ota_0.vout vdd vdd pfet_03v3 ad=5.163599p pd=17.56u as=6.322p ps=16.92u w=4.38u l=0.5u
X273 out open_ldo_0.ota_0.vout vdd vdd pfet_03v3 ad=5.163599p pd=17.56u as=6.322p ps=16.92u w=4.38u l=0.5u
X274 out open_ldo_0.ota_0.vout vdd vdd pfet_03v3 ad=5.163599p pd=17.56u as=6.322p ps=16.92u w=4.38u l=0.5u
X275 out open_ldo_0.ota_0.vout vdd vdd pfet_03v3 ad=5.163599p pd=17.56u as=6.322p ps=16.92u w=4.38u l=0.5u
X276 vdd open_ldo_0.ota_0.vout out vdd pfet_03v3 ad=6.322p pd=16.92u as=5.163599p ps=17.56u w=4.38u l=0.5u
X277 vdd open_ldo_0.ota_0.vout out vdd pfet_03v3 ad=6.322p pd=16.92u as=5.163599p ps=17.56u w=4.38u l=0.5u
X278 vdd open_ldo_0.ota_0.vout out vdd pfet_03v3 ad=6.322p pd=16.92u as=5.163599p ps=17.56u w=4.38u l=0.5u
X279 vdd open_ldo_0.ota_0.vout out vdd pfet_03v3 ad=6.322p pd=16.92u as=5.163599p ps=17.56u w=4.38u l=0.5u
X280 out open_ldo_0.ota_0.vout vdd vdd pfet_03v3 ad=5.163599p pd=17.56u as=6.322p ps=16.92u w=4.38u l=0.5u
X281 out open_ldo_0.ota_0.vout vdd vdd pfet_03v3 ad=5.163599p pd=17.56u as=6.322p ps=16.92u w=4.38u l=0.5u